W005_1
                    3D
 Schrodinger Suite 2021-4.
116119  0  0  1  0            999 V2000
    2.2303   -1.4282    5.6249 C   0  0  3  0  0  0
    3.3468   -0.6404    6.0502 C   0  0  3  0  0  0
    4.5180   -1.4592    5.9869 C   0  0  3  0  0  0
    4.1240   -2.7548    5.5311 C   0  0  3  0  0  0
    2.7103   -2.7365    5.2998 C   0  5  3  0  0  0
    3.3185    0.4054    6.3229 H   0  0  0  0  0  0
    5.5277   -1.1416    6.2066 H   0  0  0  0  0  0
    4.7932   -3.5872    5.3669 H   0  0  0  0  0  0
    2.1158   -3.5574    4.9243 H   0  0  0  0  0  0
    1.2113   -1.0803    5.5312 H   0  0  0  0  0  0
    3.6415   -1.3109    4.1285 Fe  0  2  0  0  0  0
    4.4930    0.2447    3.1134 C   0  0  1  0  0  0
    5.1065   -0.9933    2.7271 C   0  0  2  0  0  0
    4.0982   -1.8522    2.1721 C   0  0  2  0  0  0
    2.8788   -1.1161    2.2267 C   0  0  2  0  0  0
    3.0933    0.1627    2.8251 C   0  5  1  0  0  0
    4.9919    1.0743    3.5955 H   0  0  0  0  0  0
    2.3594    0.9188    3.0531 H   0  0  0  0  0  0
    1.5793   -1.5930    1.6119 C   0  0  2  0  0  0
    1.4784   -0.5256    0.1114 P   0  0  0  0  0  0
    1.6883   -2.6365    1.3170 H   0  0  0  0  0  0
    0.3757   -1.4712    2.5550 C   0  0  0  0  0  0
   -0.5480   -1.7269    2.0346 H   0  0  0  0  0  0
    0.4633   -2.1583    3.3959 H   0  0  0  0  0  0
    0.2591   -0.4667    2.9606 H   0  0  0  0  0  0
   -2.1515    2.4313    0.9536 C   0  0  0  0  0  0
   -2.3220    1.3387    0.0832 C   0  0  0  0  0  0
   -1.2392    0.4667   -0.1579 C   0  0  0  0  0  0
    0.0315    0.6719    0.4331 C   0  0  0  0  0  0
    0.1644    1.7751    1.3051 C   0  0  0  0  0  0
   -0.9083    2.6498    1.5759 C   0  0  0  0  0  0
   -2.9786    3.0976    1.1507 H   0  0  0  0  0  0
   -3.6713    1.0763   -0.5690 C   0  0  0  0  0  0
   -1.4237   -0.3722   -0.8097 H   0  0  0  0  0  0
    1.1037    1.9774    1.7882 H   0  0  0  0  0  0
   -0.7146    3.8168    2.5327 C   0  0  0  0  0  0
   -0.4832   -2.8677   -3.4606 C   0  0  0  0  0  0
   -0.4091   -3.4928   -2.1989 C   0  0  0  0  0  0
    0.1987   -2.8160   -1.1199 C   0  0  0  0  0  0
    0.7518   -1.5289   -1.2918 C   0  0  0  0  0  0
    0.6861   -0.9299   -2.5681 C   0  0  0  0  0  0
    0.0670   -1.5854   -3.6533 C   0  0  0  0  0  0
   -0.9635   -3.3681   -4.2884 H   0  0  0  0  0  0
   -0.9995   -4.8761   -1.9758 C   0  0  0  0  0  0
    0.2084   -3.3030   -0.1575 H   0  0  0  0  0  0
    1.0845    0.0639   -2.7158 H   0  0  0  0  0  0
   -0.0540   -0.8936   -5.0032 C   0  0  0  0  0  0
   -1.2165   -0.2450   -5.0437 F   0  0  0  0  0  0
    0.9303   -0.0120   -5.1821 F   0  0  0  0  0  0
   -0.0242   -1.7780   -5.9991 F   0  0  0  0  0  0
   -2.1388   -4.7585   -1.2963 F   0  0  0  0  0  0
   -1.2441   -5.4999   -3.1280 F   0  0  0  0  0  0
   -0.1505   -5.6182   -1.2641 F   0  0  0  0  0  0
   -4.3703    2.2044   -0.6927 F   0  0  0  0  0  0
   -3.5104    0.5418   -1.7797 F   0  0  0  0  0  0
   -4.3575    0.2235    0.1898 F   0  0  0  0  0  0
   -1.8777    4.1989    3.0604 F   0  0  0  0  0  0
    0.1017    3.4651    3.5274 F   0  0  0  0  0  0
   -0.1801    4.8435    1.8752 F   0  0  0  0  0  0
    4.5590   -1.8311   -1.0323 P   0  0  0  0  0  0
    9.2370   -2.0491   -1.6642 C   0  0  0  0  0  0
    8.3771   -2.5519   -2.6648 C   0  0  0  0  0  0
    6.9798   -2.4824   -2.4908 C   0  0  0  0  0  0
    6.4179   -1.9194   -1.3233 C   0  0  0  0  0  0
    7.2906   -1.4564   -0.3178 C   0  0  0  0  0  0
    8.6892   -1.5162   -0.4771 C   0  0  0  0  0  0
    6.3417   -2.8793   -3.2647 H   0  0  0  0  0  0
    6.8738   -1.0379    0.5851 H   0  0  0  0  0  0
    5.7374    1.2989   -0.9561 Cl  0  0  0  0  0  0
    2.9726    2.5162    0.0536 Cl  0  0  0  0  0  0
    6.1515   -1.2441    2.8449 H   0  0  0  0  0  0
    4.8996   -5.7107    0.4712 C   0  0  0  0  0  0
    4.5754   -5.5938    1.8299 C   0  0  0  0  0  0
    4.2923   -4.3277    2.3689 C   0  0  0  0  0  0
    4.3095   -3.1677    1.5626 C   0  0  0  0  0  0
    4.5561   -3.2915    0.1723 C   0  0  0  0  0  0
    4.8983   -4.5644   -0.3402 C   0  0  0  0  0  0
    5.1525   -6.6738    0.0507 H   0  0  0  0  0  0
    4.5693   -6.4703    2.4623 H   0  0  0  0  0  0
    4.0736   -4.2799    3.4197 H   0  0  0  0  0  0
    5.1702   -4.6669   -1.3809 H   0  0  0  0  0  0
    2.9012   -3.2404   -5.2188 C   0  0  0  0  0  0
    3.5581   -1.9982   -5.0737 C   0  0  0  0  0  0
    4.0331   -1.6019   -3.8076 C   0  0  0  0  0  0
    3.8501   -2.4179   -2.6723 C   0  0  0  0  0  0
    3.1352   -3.6263   -2.8201 C   0  0  0  0  0  0
    2.6785   -4.0488   -4.0846 C   0  0  0  0  0  0
    4.5627   -0.6649   -3.7052 H   0  0  0  0  0  0
    2.9358   -4.2467   -1.9606 H   0  0  0  0  0  0
    3.6812    0.3411   -0.4022 Pd  0  0  0  0  0  0
    8.9445   -3.1702   -3.9280 C   0  0  0  0  0  0
    8.2225   -3.8372   -4.3991 H   0  0  0  0  0  0
    9.2092   -2.3908   -4.6421 H   0  0  0  0  0  0
    9.8394   -3.7513   -3.7039 H   0  0  0  0  0  0
    9.5897   -1.0033    0.6297 C   0  0  0  0  0  0
    9.0822   -1.0351    1.5936 H   0  0  0  0  0  0
   10.4928   -1.6094    0.7071 H   0  0  0  0  0  0
    9.8808    0.0274    0.4288 H   0  0  0  0  0  0
   10.5958   -2.0992   -1.8359 O   0  0  0  0  0  0
   11.1237   -0.9320   -2.4456 C   0  0  0  0  0  0
   10.6985   -0.7741   -3.4374 H   0  0  0  0  0  0
   10.9303   -0.0443   -1.8424 H   0  0  0  0  0  0
   12.2031   -1.0338   -2.5558 H   0  0  0  0  0  0
    3.7587   -1.0802   -6.2645 C   0  0  0  0  0  0
    2.9412   -1.1841   -6.9789 H   0  0  0  0  0  0
    4.6943   -1.3145   -6.7713 H   0  0  0  0  0  0
    3.7899   -0.0367   -5.9505 H   0  0  0  0  0  0
    1.9524   -5.3731   -4.2242 C   0  0  0  0  0  0
    1.0381   -5.2474   -4.8050 H   0  0  0  0  0  0
    2.5851   -6.0955   -4.7392 H   0  0  0  0  0  0
    1.6839   -5.7896   -3.2537 H   0  0  0  0  0  0
    2.4449   -3.6539   -6.4424 O   0  0  0  0  0  0
    3.4336   -4.3056   -7.2237 C   0  0  0  0  0  0
    2.9921   -4.6441   -8.1608 H   0  0  0  0  0  0
    4.2602   -3.6375   -7.4657 H   0  0  0  0  0  0
    3.8351   -5.1785   -6.7075 H   0  0  0  0  0  0
  1  5  1  0  0  0
  1  2  2  0  0  0
  1 10  1  0  0  0
  2  3  1  0  0  0
  2  6  1  0  0  0
  3  4  2  0  0  0
  3  7  1  0  0  0
  4  5  1  0  0  0
  4  8  1  0  0  0
  5  9  1  0  0  0
 12 16  1  0  0  0
 12 13  2  0  0  0
 12 17  1  0  0  0
 13 71  1  0  0  0
 13 14  1  0  0  0
 14 75  1  0  0  0
 14 15  2  0  0  0
 15 19  1  0  0  0
 15 16  1  0  0  0
 16 18  1  0  0  0
 19 21  1  0  0  0
 19 22  1  0  0  0
 19 20  1  0  0  0
 20 40  1  0  0  0
 20 29  1  0  0  0
 22 23  1  0  0  0
 22 24  1  0  0  0
 22 25  1  0  0  0
 26 27  1  0  0  0
 26 31  2  0  0  0
 26 32  1  0  0  0
 27 28  2  0  0  0
 27 33  1  0  0  0
 28 34  1  0  0  0
 28 29  1  0  0  0
 29 30  2  0  0  0
 30 31  1  0  0  0
 30 35  1  0  0  0
 31 36  1  0  0  0
 33 55  1  0  0  0
 33 56  1  0  0  0
 33 54  1  0  0  0
 36 59  1  0  0  0
 36 57  1  0  0  0
 36 58  1  0  0  0
 37 43  1  0  0  0
 37 38  1  0  0  0
 37 42  2  0  0  0
 38 44  1  0  0  0
 38 39  2  0  0  0
 39 45  1  0  0  0
 39 40  1  0  0  0
 40 41  2  0  0  0
 41 42  1  0  0  0
 41 46  1  0  0  0
 42 47  1  0  0  0
 44 51  1  0  0  0
 44 53  1  0  0  0
 44 52  1  0  0  0
 47 49  1  0  0  0
 47 48  1  0  0  0
 47 50  1  0  0  0
 60 76  1  0  0  0
 60 64  1  0  0  0
 60 85  1  0  0  0
 61 66  1  0  0  0
 61 62  2  0  0  0
 61 99  1  0  0  0
 62 63  1  0  0  0
 62 91  1  0  0  0
 63 64  2  0  0  0
 63 67  1  0  0  0
 64 65  1  0  0  0
 65 68  1  0  0  0
 65 66  2  0  0  0
 66 95  1  0  0  0
 69 90  1  0  0  0
 70 90  1  0  0  0
 72 78  1  0  0  0
 72 73  1  0  0  0
 72 77  2  0  0  0
 73 79  1  0  0  0
 73 74  2  0  0  0
 74 80  1  0  0  0
 74 75  1  0  0  0
 75 76  2  0  0  0
 76 77  1  0  0  0
 77 81  1  0  0  0
 82 87  1  0  0  0
 82 83  2  0  0  0
 82112  1  0  0  0
 83 84  1  0  0  0
 83104  1  0  0  0
 84 85  2  0  0  0
 84 88  1  0  0  0
 85 86  1  0  0  0
 86 89  1  0  0  0
 86 87  2  0  0  0
 87108  1  0  0  0
 91 93  1  0  0  0
 91 92  1  0  0  0
 91 94  1  0  0  0
 95 98  1  0  0  0
 95 96  1  0  0  0
 95 97  1  0  0  0
 99100  1  0  0  0
100101  1  0  0  0
100102  1  0  0  0
100103  1  0  0  0
104106  1  0  0  0
104105  1  0  0  0
104107  1  0  0  0
108111  1  0  0  0
108109  1  0  0  0
108110  1  0  0  0
112113  1  0  0  0
113116  1  0  0  0
113115  1  0  0  0
113114  1  0  0  0
M  CHG  3   5  -1  11   2  16  -1
M  END
> <s_m_entry_id>
64

> <s_m_entry_name>
W005-1_1.1

> <program>
Gaussian 16, Revision B.01

> <s_m_Source_Path>
/uufs/chpc.utah.edu/common/home/u6034117/conf_cluster_6

> <s_m_Source_File>
conf_cluster_6_ligand1_representatives.maegz

> <i_m_Source_File_Index>
5

> <r_mmod_Potential_Energy-OPLS-2005>
464.519561767578

> <b_mmod_Minimization_Converged-OPLS-2005>
1

> <r_mmod_RMS_Derivative-OPLS-2005>
0.000711243541445583

> <i_mmod_Times_Found-OPLS-2005>
78

> <r_mmod_Relative_Potential_Energy-OPLS-2005>
9.85333251953125

> <i_mmod_Conformation-OPLS-2005>
17

> <i_mmod_Serial_Number-OPLS-2005>
1

> <s_m_job_name>
mmod_csearch_6

> <r_canvas_Distance_To_Centroid>
0

> <b_canvas_Is_Nearest_To_Centroid>
1

> <b_canvas_Is_Farthest_From_Centroid>
1

> <r_canvas_Max_Distance_From_Centroid>
0

> <r_canvas_Average_Distance_From_Centroid>
0

> <r_canvas_Cluster_Variance>
0

> <i_canvas_Canvas_Cluster_Index>
5

> <i_canvas_Canvas_Cluster_Size>
1

> <s_m_subgroup_title>
conf_cluster_6_ligand1_representatives

> <s_m_subgroupid>
conf_cluster_6_ligand1_representatives

> <b_m_subgroup_collapsed>
0

$$$$
