W005_1
                    3D
 Schrodinger Suite 2021-4.
116119  0  0  1  0            999 V2000
    3.3736   -1.3106    5.8483 C   0  0  3  0  0  0
    4.7233   -0.8544    5.9791 C   0  0  3  0  0  0
    5.5911   -1.9089    5.5517 C   0  0  3  0  0  0
    4.7772   -3.0182    5.1601 C   0  0  3  0  0  0
    3.4053   -2.6473    5.3410 C   0  5  3  0  0  0
    5.0325    0.1313    6.2979 H   0  0  0  0  0  0
    6.6694   -1.8595    5.4930 H   0  0  0  0  0  0
    5.1389   -3.9575    4.7652 H   0  0  0  0  0  0
    2.5433   -3.2580    5.1128 H   0  0  0  0  0  0
    2.4882   -0.7305    6.0646 H   0  0  0  0  0  0
    4.3296   -1.3505    4.0227 Fe  0  2  0  0  0  0
    5.2434    0.0786    2.8826 C   0  0  1  0  0  0
    5.4156   -1.2145    2.2901 C   0  0  2  0  0  0
    4.1241   -1.7660    1.9941 C   0  0  2  0  0  0
    3.1694   -0.7894    2.4218 C   0  0  2  0  0  0
    3.8403    0.3411    2.9837 C   0  5  1  0  0  0
    6.0352    0.7212    3.2424 H   0  0  0  0  0  0
    3.3911    1.2231    3.4190 H   0  0  0  0  0  0
    1.6706   -0.8924    2.2134 C   0  0  2  0  0  0
    1.5416   -0.3552    0.4473 P   0  0  0  0  0  0
    1.3512   -1.9239    2.3544 H   0  0  0  0  0  0
    0.8957    0.0112    3.1865 C   0  0  0  0  0  0
   -0.1765   -0.1658    3.1366 H   0  0  0  0  0  0
    1.1790   -0.1800    4.2199 H   0  0  0  0  0  0
    1.0673    1.0695    2.9840 H   0  0  0  0  0  0
   -2.2720    2.3871   -0.0796 C   0  0  0  0  0  0
   -1.0391    2.7956   -0.6258 C   0  0  0  0  0  0
    0.1006    1.9808   -0.4525 C   0  0  0  0  0  0
    0.0344    0.7668    0.2650 C   0  0  0  0  0  0
   -1.2235    0.3582    0.7599 C   0  0  0  0  0  0
   -2.3716    1.1621    0.6087 C   0  0  0  0  0  0
   -3.1451    3.0105   -0.2057 H   0  0  0  0  0  0
   -0.9357    4.1075   -1.3900 C   0  0  0  0  0  0
    1.0291    2.2995   -0.8999 H   0  0  0  0  0  0
   -1.3257   -0.5945    1.2587 H   0  0  0  0  0  0
   -3.6983    0.6832    1.1769 C   0  0  0  0  0  0
   -0.5501   -3.6762   -2.1674 C   0  0  0  0  0  0
    0.0431   -4.0482   -0.9454 C   0  0  0  0  0  0
    0.7044   -3.0725   -0.1665 C   0  0  0  0  0  0
    0.7857   -1.7291   -0.5944 C   0  0  0  0  0  0
    0.2075   -1.3901   -1.8379 C   0  0  0  0  0  0
   -0.4739   -2.3442   -2.6191 C   0  0  0  0  0  0
   -1.0682   -4.4208   -2.7539 H   0  0  0  0  0  0
   -0.0425   -5.4951   -0.4830 C   0  0  0  0  0  0
    1.1476   -3.3780    0.7669 H   0  0  0  0  0  0
    0.2503   -0.3728   -2.2001 H   0  0  0  0  0  0
   -1.1438   -1.9108   -3.9139 C   0  0  0  0  0  0
   -2.2045   -1.1613   -3.6186 F   0  0  0  0  0  0
   -0.2988   -1.1858   -4.6450 F   0  0  0  0  0  0
   -1.5463   -2.9574   -4.6348 F   0  0  0  0  0  0
    0.8065   -6.2326   -1.1965 F   0  0  0  0  0  0
    0.2563   -5.6166    0.8110 F   0  0  0  0  0  0
   -1.2775   -5.9575   -0.6740 F   0  0  0  0  0  0
   -2.1016    4.4166   -1.9579 F   0  0  0  0  0  0
   -0.5975    5.0791   -0.5446 F   0  0  0  0  0  0
   -0.0113    4.0230   -2.3469 F   0  0  0  0  0  0
   -4.6182    1.6477    1.1644 F   0  0  0  0  0  0
   -4.1377   -0.3441    0.4519 F   0  0  0  0  0  0
   -3.5234    0.2773    2.4346 F   0  0  0  0  0  0
    4.4104   -1.5880   -1.1693 P   0  0  0  0  0  0
    9.0565   -2.3553   -1.6013 C   0  0  0  0  0  0
    8.1388   -3.0454   -2.4231 C   0  0  0  0  0  0
    6.7567   -2.8071   -2.2836 C   0  0  0  0  0  0
    6.2650   -1.8716   -1.3472 C   0  0  0  0  0  0
    7.1954   -1.1816   -0.5442 C   0  0  0  0  0  0
    8.5808   -1.4075   -0.6696 C   0  0  0  0  0  0
    6.0643   -3.3477   -2.9116 H   0  0  0  0  0  0
    6.8438   -0.4576    0.1735 H   0  0  0  0  0  0
    5.5974    1.5612   -1.0984 Cl  0  0  0  0  0  0
    3.1044    2.6037    0.6527 Cl  0  0  0  0  0  0
    6.3620   -1.7052    2.1077 H   0  0  0  0  0  0
    3.6934   -5.5460    0.0120 C   0  0  0  0  0  0
    3.4510   -5.4423    1.3899 C   0  0  0  0  0  0
    3.5635   -4.1939    2.0248 C   0  0  0  0  0  0
    3.8965   -3.0340    1.2910 C   0  0  0  0  0  0
    4.0634   -3.1208   -0.1165 C   0  0  0  0  0  0
    4.0055   -4.3932   -0.7281 C   0  0  0  0  0  0
    3.6372   -6.5074   -0.4790 H   0  0  0  0  0  0
    3.2023   -6.3253    1.9617 H   0  0  0  0  0  0
    3.4046   -4.1603    3.0891 H   0  0  0  0  0  0
    4.2091   -4.4978   -1.7828 H   0  0  0  0  0  0
    3.1738   -2.1638   -5.6848 C   0  0  0  0  0  0
    4.1125   -1.1809   -5.2999 C   0  0  0  0  0  0
    4.4415   -1.0235   -3.9391 C   0  0  0  0  0  0
    3.8592   -1.8393   -2.9479 C   0  0  0  0  0  0
    2.9111   -2.8063   -3.3430 C   0  0  0  0  0  0
    2.5875   -2.9909   -4.7030 C   0  0  0  0  0  0
    5.1748   -0.2834   -3.6490 H   0  0  0  0  0  0
    2.4405   -3.4308   -2.6016 H   0  0  0  0  0  0
    3.6697    0.5339   -0.2788 Pd  0  0  0  0  0  0
    8.6237   -4.0382   -3.4619 C   0  0  0  0  0  0
    7.9016   -4.1401   -4.2722 H   0  0  0  0  0  0
    9.5683   -3.7121   -3.8982 H   0  0  0  0  0  0
    8.7722   -5.0175   -3.0080 H   0  0  0  0  0  0
    9.5483   -0.6216    0.1938 C   0  0  0  0  0  0
    9.0928    0.3015    0.5529 H   0  0  0  0  0  0
    9.8533   -1.2145    1.0553 H   0  0  0  0  0  0
   10.4395   -0.3535   -0.3744 H   0  0  0  0  0  0
   10.4022   -2.5861   -1.7208 O   0  0  0  0  0  0
   10.8650   -3.6395   -0.8914 C   0  0  0  0  0  0
   10.6841   -3.4242    0.1623 H   0  0  0  0  0  0
   10.3807   -4.5846   -1.1390 H   0  0  0  0  0  0
   11.9386   -3.7669   -1.0283 H   0  0  0  0  0  0
    4.7951   -0.3079   -6.3358 C   0  0  0  0  0  0
    4.1921    0.5760   -6.5419 H   0  0  0  0  0  0
    4.9418   -0.8521   -7.2692 H   0  0  0  0  0  0
    5.7744    0.0192   -5.9859 H   0  0  0  0  0  0
    1.6345   -4.0963   -5.1145 C   0  0  0  0  0  0
    0.7428   -3.6794   -5.5801 H   0  0  0  0  0  0
    2.1177   -4.7502   -5.8409 H   0  0  0  0  0  0
    1.3291   -4.7056   -4.2644 H   0  0  0  0  0  0
    2.8572   -2.3462   -7.0057 O   0  0  0  0  0  0
    1.8233   -1.4881   -7.4633 C   0  0  0  0  0  0
    1.6740   -1.6362   -8.5326 H   0  0  0  0  0  0
    0.8801   -1.7049   -6.9621 H   0  0  0  0  0  0
    2.0655   -0.4374   -7.3018 H   0  0  0  0  0  0
  1  5  1  0  0  0
  1  2  2  0  0  0
  1 10  1  0  0  0
  2  3  1  0  0  0
  2  6  1  0  0  0
  3  4  2  0  0  0
  3  7  1  0  0  0
  4  5  1  0  0  0
  4  8  1  0  0  0
  5  9  1  0  0  0
 12 16  1  0  0  0
 12 13  2  0  0  0
 12 17  1  0  0  0
 13 71  1  0  0  0
 13 14  1  0  0  0
 14 75  1  0  0  0
 14 15  2  0  0  0
 15 19  1  0  0  0
 15 16  1  0  0  0
 16 18  1  0  0  0
 19 21  1  0  0  0
 19 22  1  0  0  0
 19 20  1  0  0  0
 20 40  1  0  0  0
 20 29  1  0  0  0
 22 23  1  0  0  0
 22 24  1  0  0  0
 22 25  1  0  0  0
 26 27  1  0  0  0
 26 31  2  0  0  0
 26 32  1  0  0  0
 27 28  2  0  0  0
 27 33  1  0  0  0
 28 34  1  0  0  0
 28 29  1  0  0  0
 29 30  2  0  0  0
 30 31  1  0  0  0
 30 35  1  0  0  0
 31 36  1  0  0  0
 33 55  1  0  0  0
 33 56  1  0  0  0
 33 54  1  0  0  0
 36 59  1  0  0  0
 36 57  1  0  0  0
 36 58  1  0  0  0
 37 43  1  0  0  0
 37 38  1  0  0  0
 37 42  2  0  0  0
 38 44  1  0  0  0
 38 39  2  0  0  0
 39 45  1  0  0  0
 39 40  1  0  0  0
 40 41  2  0  0  0
 41 42  1  0  0  0
 41 46  1  0  0  0
 42 47  1  0  0  0
 44 51  1  0  0  0
 44 53  1  0  0  0
 44 52  1  0  0  0
 47 49  1  0  0  0
 47 48  1  0  0  0
 47 50  1  0  0  0
 60 76  1  0  0  0
 60 64  1  0  0  0
 60 85  1  0  0  0
 61 66  1  0  0  0
 61 62  2  0  0  0
 61 99  1  0  0  0
 62 63  1  0  0  0
 62 91  1  0  0  0
 63 64  2  0  0  0
 63 67  1  0  0  0
 64 65  1  0  0  0
 65 68  1  0  0  0
 65 66  2  0  0  0
 66 95  1  0  0  0
 69 90  1  0  0  0
 70 90  1  0  0  0
 72 78  1  0  0  0
 72 73  1  0  0  0
 72 77  2  0  0  0
 73 79  1  0  0  0
 73 74  2  0  0  0
 74 80  1  0  0  0
 74 75  1  0  0  0
 75 76  2  0  0  0
 76 77  1  0  0  0
 77 81  1  0  0  0
 82 87  1  0  0  0
 82 83  2  0  0  0
 82112  1  0  0  0
 83 84  1  0  0  0
 83104  1  0  0  0
 84 85  2  0  0  0
 84 88  1  0  0  0
 85 86  1  0  0  0
 86 89  1  0  0  0
 86 87  2  0  0  0
 87108  1  0  0  0
 91 93  1  0  0  0
 91 92  1  0  0  0
 91 94  1  0  0  0
 95 98  1  0  0  0
 95 96  1  0  0  0
 95 97  1  0  0  0
 99100  1  0  0  0
100101  1  0  0  0
100102  1  0  0  0
100103  1  0  0  0
104106  1  0  0  0
104105  1  0  0  0
104107  1  0  0  0
108111  1  0  0  0
108109  1  0  0  0
108110  1  0  0  0
112113  1  0  0  0
113116  1  0  0  0
113115  1  0  0  0
113114  1  0  0  0
M  CHG  3   5  -1  11   2  16  -1
M  END
> <s_m_entry_id>
63

> <s_m_entry_name>
W005-1_1.1

> <program>
Gaussian 16, Revision B.01

> <s_m_Source_Path>
/uufs/chpc.utah.edu/common/home/u6034117/conf_cluster_6

> <s_m_Source_File>
conf_cluster_6_ligand1_representatives.maegz

> <i_m_Source_File_Index>
4

> <r_mmod_Potential_Energy-OPLS-2005>
460.420196533203

> <b_mmod_Minimization_Converged-OPLS-2005>
1

> <r_mmod_RMS_Derivative-OPLS-2005>
0.000876533042173833

> <i_mmod_Times_Found-OPLS-2005>
55

> <r_mmod_Relative_Potential_Energy-OPLS-2005>
5.75396728515625

> <i_mmod_Conformation-OPLS-2005>
9

> <i_mmod_Serial_Number-OPLS-2005>
1

> <s_m_job_name>
mmod_csearch_6

> <r_canvas_Distance_To_Centroid>
0.0387348737567663

> <b_canvas_Is_Nearest_To_Centroid>
1

> <b_canvas_Is_Farthest_From_Centroid>
0

> <r_canvas_Max_Distance_From_Centroid>
0.0390196703374386

> <r_canvas_Average_Distance_From_Centroid>
0.0388983059674501

> <r_canvas_Cluster_Variance>
0.00151308891009233

> <i_canvas_Canvas_Cluster_Index>
4

> <i_canvas_Canvas_Cluster_Size>
4

> <s_m_subgroup_title>
conf_cluster_6_ligand1_representatives

> <s_m_subgroupid>
conf_cluster_6_ligand1_representatives

> <b_m_subgroup_collapsed>
0

$$$$
