%nprocs=16
%mem=28GB
%chk=W005_1_2.chk
# PBEPBE gen 6D pseudo=read scf=maxcycles=500 denfit int=(grid=ultrafine) empiricaldispersion=GD3BJ opt freq=noraman

 W005_1

0 1
C    2.93340    -1.39560    6.00270
C    4.23320    -0.84320    6.23100
C    5.20400    -1.83630    5.88640
C    4.50360    -3.00430    5.44910
C    3.09880    -2.73080    5.51840
H    4.44630    0.16480    6.55870
H    6.27740    -1.70980    5.91060
H    4.96070    -3.91860    5.09720
H    2.30210    -3.40320    5.23350
H    1.99530    -0.87810    6.14240
Fe    4.02920    -1.38240    4.25710
C    4.92540    0.09920    3.17270
C    5.23510    -1.18030    2.60830
C    4.01360    -1.83180    2.22600
C    2.96470    -0.91630    2.55850
C    3.50450    0.25990    3.16370
H    5.63950    0.80050    3.58220
H    2.96100    1.11090    3.55050
C    1.50240    -1.09950    2.20280
P    1.54100    -0.44410    0.46770
H    1.24290    -2.15660    2.24090
C    0.57820    -0.31900    3.15080
H    -0.46820    -0.56410    2.98290
H    0.77550    -0.56790    4.19170
H    0.69100    0.76010    3.03810
C    -2.06790    2.51510    -0.28190
C    -0.77250    2.86730    -0.70980
C    0.30170    1.98480    -0.46670
C    0.10930    0.75720    0.20280
C    -1.20730    0.40480    0.57190
C    -2.29260    1.27830    0.35400
H    -2.89290    3.18890    -0.46070
C    -0.52950    4.18910    -1.42360
H    1.28060    2.26160    -0.82540
H    -1.40650    -0.55910    1.01550
C    -3.68930    0.86260    0.78890
C    -0.24720    -3.74910    -2.39700
C    0.40230    -4.14600    -1.21250
C    0.95360    -3.16550    -0.35900
C    0.87550    -1.79080    -0.67400
C    0.24330    -1.42380    -1.88460
C    -0.32860    -2.38680    -2.74140
H    -0.67860    -4.49330    -3.05000
C    0.51520    -5.62380    -0.86950
H    1.44770    -3.49620    0.53940
H    0.17520    -0.38470    -2.17050
C    -1.06250    -1.95800    -4.00360
F    -2.35170    -1.80070    -3.70780
F    -0.59040    -0.80140    -4.46940
F    -0.95390    -2.88480    -4.95540
F    0.66860    -5.80340    0.44310
F    -0.58160    -6.27480    -1.25610
F    1.56640    -6.14010    -1.50420
F    -1.63420    4.60470    -2.04340
F    -0.16570    5.10730    -0.53050
F    0.43840    4.05900    -2.33140
F    -4.16160    -0.04240    -0.06620
F    -3.63850    0.31920    2.00550
F    -4.52170    1.90310    0.82350
P    4.48240    -1.71150    -0.93130
C    9.05980    -2.09930    -2.01750
C    8.15310    -1.57170    -2.96320
C    6.78580    -1.46110    -2.63850
C    6.30340    -1.85740    -1.37300
C    7.22420    -2.35910    -0.42950
C    8.59380    -2.47800    -0.73980
H    6.10510    -1.05950    -3.37270
H    6.87460    -2.65820    0.54610
Cl    5.89960    1.25650    -0.38890
Cl    3.20760    2.47520    0.91600
H    6.22940    -1.59140    2.50470
C    4.20830    -5.68460    0.36530
C    3.77110    -5.56900    1.69310
C    3.66060    -4.29720    2.28000
C    3.94740    -3.12850    1.54060
C    4.26290    -3.23800    0.16150
C    4.46470    -4.52440    -0.38440
H    4.34260    -6.65990    -0.08100
H    3.55980    -6.45760    2.27120
H    3.37700    -4.25240    3.31730
H    4.83730    -4.63040    -1.39150
C    2.41880    -2.01320    -5.16930
C    2.81210    -0.77650    -4.61520
C    3.42810    -0.74200    -3.34900
C    3.64540    -1.92130    -2.60560
C    3.20580    -3.14610    -3.15480
C    2.60210    -3.19920    -4.42720
H    3.74900    0.20640    -2.94300
H    3.30190    -4.06690    -2.61110
Pd    3.77840    0.38250    0.03690
C    8.63580    -1.11400    -4.32610
H    7.96940    -0.35920    -4.74380
H    9.63180    -0.67560    -4.25720
H    8.67560    -1.95700    -5.01520
C    9.55680    -3.00980    0.30380
H    9.14550    -2.90850    1.30800
H    9.76570    -4.06360    0.12150
H    10.49840    -2.46080    0.27170
O    10.38930    -2.22300    -2.32680
C    10.70940    -3.46340    -2.93580
H    10.46500    -4.30170    -2.28250
H    10.17770    -3.59430    -3.87880
H    11.77810    -3.50210    -3.14550
C    2.57490    0.51700    -5.37080
H    1.62090    0.48490    -5.89840
H    3.36690    0.67890    -6.10150
H    2.55110    1.37160    -4.69450
C    2.14430    -4.53420    -4.98420
H    1.21370    -4.42350    -5.54160
H    2.90000    -4.93910    -5.65680
H    1.97170    -5.25820    -4.18790
O    1.82840    -2.05880    -6.40410
C    2.75630    -2.21530    -7.46530
H    2.22260    -2.24330    -8.41500
H    3.46340    -1.38600    -7.50220
H    3.31840    -3.14470    -7.36860

P O H C F Cl 0
6-31G(d)
****
Fe Pd 0
LANL2DZ
****

Fe Pd 0
LANL2DZ

