W005_1
                    3D
 Schrodinger Suite 2021-4.
116119  0  0  1  0            999 V2000
    3.4525   -1.5754    5.8717 C   0  0  3  0  0  0
    4.8123   -1.1442    5.9856 C   0  0  3  0  0  0
    5.6521   -2.1858    5.4775 C   0  0  3  0  0  0
    4.8113   -3.2629    5.0537 C   0  0  3  0  0  0
    3.4509   -2.8846    5.2961 C   0  5  3  0  0  0
    5.1450   -0.1803    6.3448 H   0  0  0  0  0  0
    6.7288   -2.1462    5.3885 H   0  0  0  0  0  0
    5.1470   -4.1846    4.5994 H   0  0  0  0  0  0
    2.5739   -3.4716    5.0631 H   0  0  0  0  0  0
    2.5810   -0.9962    6.1414 H   0  0  0  0  0  0
    4.3534   -1.5323    4.0192 Fe  0  2  0  0  0  0
    5.2503   -0.0578    2.9250 C   0  0  1  0  0  0
    5.3869   -1.3194    2.2599 C   0  0  2  0  0  0
    4.0787   -1.8436    1.9817 C   0  0  2  0  0  0
    3.1516   -0.8739    2.4874 C   0  0  2  0  0  0
    3.8558    0.2167    3.0853 C   0  5  1  0  0  0
    6.0629    0.5562    3.2887 H   0  0  0  0  0  0
    3.4347    1.0816    3.5791 H   0  0  0  0  0  0
    1.6431   -0.9383    2.3143 C   0  0  2  0  0  0
    1.5003   -0.4134    0.5451 P   0  0  0  0  0  0
    1.3018   -1.9571    2.4842 H   0  0  0  0  0  0
    0.9082    0.0037    3.2815 C   0  0  0  0  0  0
   -0.1702   -0.1347    3.2376 H   0  0  0  0  0  0
    1.1947   -0.1843    4.3155 H   0  0  0  0  0  0
    1.1152    1.0524    3.0627 H   0  0  0  0  0  0
   -2.3220    2.2826   -0.0604 C   0  0  0  0  0  0
   -1.0876    2.6851   -0.6085 C   0  0  0  0  0  0
    0.0555    1.8824   -0.4063 C   0  0  0  0  0  0
   -0.0127    0.6841    0.3357 C   0  0  0  0  0  0
   -1.2685    0.2807    0.8380 C   0  0  0  0  0  0
   -2.4192    1.0764    0.6613 C   0  0  0  0  0  0
   -3.1988    2.8960   -0.2081 H   0  0  0  0  0  0
   -0.9840    3.9759   -1.4074 C   0  0  0  0  0  0
    0.9901    2.1986   -0.8442 H   0  0  0  0  0  0
   -1.3645   -0.6585    1.3631 H   0  0  0  0  0  0
   -3.7499    0.6105    1.2315 C   0  0  0  0  0  0
   -0.4710   -3.7839   -2.1088 C   0  0  0  0  0  0
   -0.0843   -4.0952   -0.7928 C   0  0  0  0  0  0
    0.5325   -3.1039    0.0023 C   0  0  0  0  0  0
    0.7733   -1.8047   -0.4998 C   0  0  0  0  0  0
    0.3671   -1.5187   -1.8218 C   0  0  0  0  0  0
   -0.2610   -2.4931   -2.6271 C   0  0  0  0  0  0
   -0.9507   -4.5363   -2.7178 H   0  0  0  0  0  0
   -0.3617   -5.4889   -0.2479 C   0  0  0  0  0  0
    0.8204   -3.3685    1.0050 H   0  0  0  0  0  0
    0.5124   -0.5265   -2.2224 H   0  0  0  0  0  0
   -0.7359   -2.1640   -4.0341 C   0  0  0  0  0  0
   -1.9527   -2.6722   -4.2278 F   0  0  0  0  0  0
   -0.7968   -0.8468   -4.2318 F   0  0  0  0  0  0
    0.0967   -2.7020   -4.9215 F   0  0  0  0  0  0
   -0.0188   -5.6014    1.0362 F   0  0  0  0  0  0
   -1.6627   -5.7519   -0.3599 F   0  0  0  0  0  0
    0.3185   -6.3894   -0.9560 F   0  0  0  0  0  0
   -0.0719    3.8549   -2.3726 F   0  0  0  0  0  0
   -2.1537    4.2807   -1.9697 F   0  0  0  0  0  0
   -0.6255    4.9666   -0.5933 F   0  0  0  0  0  0
   -4.2459   -0.3472    0.4503 F   0  0  0  0  0  0
   -3.5685    0.1160    2.4564 F   0  0  0  0  0  0
   -4.6279    1.6108    1.3030 F   0  0  0  0  0  0
    4.4053   -1.5035   -1.1122 P   0  0  0  0  0  0
    9.0729   -2.0823   -1.5916 C   0  0  0  0  0  0
    8.3898   -1.0969   -2.3381 C   0  0  0  0  0  0
    6.9982   -0.9404   -2.1814 C   0  0  0  0  0  0
    6.2692   -1.7332   -1.2707 C   0  0  0  0  0  0
    6.9672   -2.7077   -0.5245 C   0  0  0  0  0  0
    8.3584   -2.8799   -0.6721 C   0  0  0  0  0  0
    6.4779   -0.1958   -2.7667 H   0  0  0  0  0  0
    6.4357   -3.3371    0.1714 H   0  0  0  0  0  0
    5.6135    1.6058   -0.6968 Cl  0  0  0  0  0  0
    2.9802    2.5598    0.8982 Cl  0  0  0  0  0  0
    6.3263   -1.7973    2.0205 H   0  0  0  0  0  0
    3.2529   -5.4383   -0.2229 C   0  0  0  0  0  0
    3.1493   -5.4316    1.1769 C   0  0  0  0  0  0
    3.4093   -4.2497    1.8917 C   0  0  0  0  0  0
    3.7865   -3.0665    1.2201 C   0  0  0  0  0  0
    3.8860   -3.0692   -0.1964 C   0  0  0  0  0  0
    3.6111   -4.2612   -0.9022 C   0  0  0  0  0  0
    3.0488   -6.3437   -0.7773 H   0  0  0  0  0  0
    2.8638   -6.3337    1.7000 H   0  0  0  0  0  0
    3.3160   -4.2824    2.9642 H   0  0  0  0  0  0
    3.6719   -4.2899   -1.9775 H   0  0  0  0  0  0
    3.3168   -1.7243   -5.6918 C   0  0  0  0  0  0
    2.7820   -0.7107   -4.8681 C   0  0  0  0  0  0
    3.0992   -0.6717   -3.4957 C   0  0  0  0  0  0
    3.9503   -1.6367   -2.9238 C   0  0  0  0  0  0
    4.5132   -2.6228   -3.7600 C   0  0  0  0  0  0
    4.2090   -2.6738   -5.1354 C   0  0  0  0  0  0
    2.7024    0.1203   -2.8796 H   0  0  0  0  0  0
    5.2167   -3.3290   -3.3426 H   0  0  0  0  0  0
    3.6271    0.5435   -0.0970 Pd  0  0  0  0  0  0
    9.1334   -0.1954   -3.3047 C   0  0  0  0  0  0
    8.6328    0.7687   -3.3981 H   0  0  0  0  0  0
   10.1509   -0.0081   -2.9610 H   0  0  0  0  0  0
    9.1789   -0.6554   -4.2914 H   0  0  0  0  0  0
    9.0794   -3.9252    0.1566 C   0  0  0  0  0  0
    8.4823   -4.2334    1.0147 H   0  0  0  0  0  0
    9.2904   -4.8057   -0.4497 H   0  0  0  0  0  0
   10.0249   -3.5304    0.5300 H   0  0  0  0  0  0
   10.4243   -2.2578   -1.7394 O   0  0  0  0  0  0
   10.7628   -3.1346   -2.8021 C   0  0  0  0  0  0
   10.3265   -4.1232   -2.6543 H   0  0  0  0  0  0
   10.4246   -2.7485   -3.7640 H   0  0  0  0  0  0
   11.8455   -3.2494   -2.8495 H   0  0  0  0  0  0
    1.8739    0.3465   -5.4657 C   0  0  0  0  0  0
    1.4143    0.9677   -4.6971 H   0  0  0  0  0  0
    1.0770   -0.1214   -6.0443 H   0  0  0  0  0  0
    2.4439    0.9917   -6.1345 H   0  0  0  0  0  0
    4.8919   -3.7192   -5.9972 C   0  0  0  0  0  0
    5.1512   -3.3037   -6.9714 H   0  0  0  0  0  0
    5.8144   -4.0688   -5.5333 H   0  0  0  0  0  0
    4.2372   -4.5777   -6.1448 H   0  0  0  0  0  0
    2.9875   -1.7188   -7.0253 O   0  0  0  0  0  0
    2.2858   -2.8658   -7.4856 C   0  0  0  0  0  0
    2.9387   -3.4931   -8.0921 H   0  0  0  0  0  0
    1.8765   -3.4728   -6.6764 H   0  0  0  0  0  0
    1.4536   -2.5500   -8.1146 H   0  0  0  0  0  0
  1  5  1  0  0  0
  1  2  2  0  0  0
  1 10  1  0  0  0
  2  3  1  0  0  0
  2  6  1  0  0  0
  3  4  2  0  0  0
  3  7  1  0  0  0
  4  5  1  0  0  0
  4  8  1  0  0  0
  5  9  1  0  0  0
 12 16  1  0  0  0
 12 13  2  0  0  0
 12 17  1  0  0  0
 13 71  1  0  0  0
 13 14  1  0  0  0
 14 75  1  0  0  0
 14 15  2  0  0  0
 15 19  1  0  0  0
 15 16  1  0  0  0
 16 18  1  0  0  0
 19 21  1  0  0  0
 19 22  1  0  0  0
 19 20  1  0  0  0
 20 40  1  0  0  0
 20 29  1  0  0  0
 22 23  1  0  0  0
 22 24  1  0  0  0
 22 25  1  0  0  0
 26 27  1  0  0  0
 26 31  2  0  0  0
 26 32  1  0  0  0
 27 28  2  0  0  0
 27 33  1  0  0  0
 28 34  1  0  0  0
 28 29  1  0  0  0
 29 30  2  0  0  0
 30 31  1  0  0  0
 30 35  1  0  0  0
 31 36  1  0  0  0
 33 55  1  0  0  0
 33 56  1  0  0  0
 33 54  1  0  0  0
 36 59  1  0  0  0
 36 57  1  0  0  0
 36 58  1  0  0  0
 37 43  1  0  0  0
 37 38  1  0  0  0
 37 42  2  0  0  0
 38 44  1  0  0  0
 38 39  2  0  0  0
 39 45  1  0  0  0
 39 40  1  0  0  0
 40 41  2  0  0  0
 41 42  1  0  0  0
 41 46  1  0  0  0
 42 47  1  0  0  0
 44 51  1  0  0  0
 44 53  1  0  0  0
 44 52  1  0  0  0
 47 49  1  0  0  0
 47 48  1  0  0  0
 47 50  1  0  0  0
 60 76  1  0  0  0
 60 64  1  0  0  0
 60 85  1  0  0  0
 61 66  1  0  0  0
 61 62  2  0  0  0
 61 99  1  0  0  0
 62 63  1  0  0  0
 62 91  1  0  0  0
 63 64  2  0  0  0
 63 67  1  0  0  0
 64 65  1  0  0  0
 65 68  1  0  0  0
 65 66  2  0  0  0
 66 95  1  0  0  0
 69 90  1  0  0  0
 70 90  1  0  0  0
 72 78  1  0  0  0
 72 73  1  0  0  0
 72 77  2  0  0  0
 73 79  1  0  0  0
 73 74  2  0  0  0
 74 80  1  0  0  0
 74 75  1  0  0  0
 75 76  2  0  0  0
 76 77  1  0  0  0
 77 81  1  0  0  0
 82 87  1  0  0  0
 82 83  2  0  0  0
 82112  1  0  0  0
 83 84  1  0  0  0
 83104  1  0  0  0
 84 85  2  0  0  0
 84 88  1  0  0  0
 85 86  1  0  0  0
 86 89  1  0  0  0
 86 87  2  0  0  0
 87108  1  0  0  0
 91 93  1  0  0  0
 91 92  1  0  0  0
 91 94  1  0  0  0
 95 98  1  0  0  0
 95 96  1  0  0  0
 95 97  1  0  0  0
 99100  1  0  0  0
100101  1  0  0  0
100102  1  0  0  0
100103  1  0  0  0
104106  1  0  0  0
104105  1  0  0  0
104107  1  0  0  0
108111  1  0  0  0
108109  1  0  0  0
108110  1  0  0  0
112113  1  0  0  0
113116  1  0  0  0
113115  1  0  0  0
113114  1  0  0  0
M  CHG  3   5  -1  11   2  16  -1
M  END
> <s_m_entry_id>
60

> <s_m_entry_name>
W005-1_1.1

> <program>
Gaussian 16, Revision B.01

> <s_m_Source_Path>
/uufs/chpc.utah.edu/common/home/u6034117/conf_cluster_6

> <s_m_Source_File>
conf_cluster_6_ligand1_representatives.maegz

> <i_m_Source_File_Index>
1

> <r_mmod_Potential_Energy-OPLS-2005>
457.954376220703

> <b_mmod_Minimization_Converged-OPLS-2005>
1

> <r_mmod_RMS_Derivative-OPLS-2005>
0.000991228967905045

> <i_mmod_Times_Found-OPLS-2005>
27

> <r_mmod_Relative_Potential_Energy-OPLS-2005>
3.28814697265625

> <i_mmod_Conformation-OPLS-2005>
5

> <i_mmod_Serial_Number-OPLS-2005>
1

> <s_m_job_name>
mmod_csearch_6

> <r_canvas_Distance_To_Centroid>
0.0430098836206728

> <b_canvas_Is_Nearest_To_Centroid>
1

> <b_canvas_Is_Farthest_From_Centroid>
0

> <r_canvas_Max_Distance_From_Centroid>
0.0604997850540611

> <r_canvas_Average_Distance_From_Centroid>
0.0542968335664935

> <r_canvas_Cluster_Variance>
0.00298480716582256

> <i_canvas_Canvas_Cluster_Index>
1

> <i_canvas_Canvas_Cluster_Size>
6

> <s_m_subgroup_title>
conf_cluster_6_ligand1_representatives

> <s_m_subgroupid>
conf_cluster_6_ligand1_representatives

> <b_m_subgroup_collapsed>
0

$$$$
