W005_1
                    3D
 Schrodinger Suite 2021-4.
116119  0  0  1  0            999 V2000
    2.9334   -1.3956    6.0027 C   0  0  3  0  0  0
    4.2332   -0.8432    6.2310 C   0  0  3  0  0  0
    5.2040   -1.8363    5.8864 C   0  0  3  0  0  0
    4.5036   -3.0043    5.4491 C   0  0  3  0  0  0
    3.0988   -2.7308    5.5184 C   0  5  3  0  0  0
    4.4463    0.1648    6.5587 H   0  0  0  0  0  0
    6.2774   -1.7098    5.9106 H   0  0  0  0  0  0
    4.9607   -3.9186    5.0972 H   0  0  0  0  0  0
    2.3021   -3.4032    5.2335 H   0  0  0  0  0  0
    1.9953   -0.8781    6.1424 H   0  0  0  0  0  0
    4.0292   -1.3824    4.2571 Fe  0  2  0  0  0  0
    4.9254    0.0992    3.1727 C   0  0  1  0  0  0
    5.2351   -1.1803    2.6083 C   0  0  2  0  0  0
    4.0136   -1.8318    2.2260 C   0  0  2  0  0  0
    2.9647   -0.9163    2.5585 C   0  0  2  0  0  0
    3.5045    0.2599    3.1637 C   0  5  1  0  0  0
    5.6395    0.8005    3.5822 H   0  0  0  0  0  0
    2.9610    1.1109    3.5505 H   0  0  0  0  0  0
    1.5024   -1.0995    2.2028 C   0  0  2  0  0  0
    1.5410   -0.4441    0.4677 P   0  0  0  0  0  0
    1.2429   -2.1566    2.2409 H   0  0  0  0  0  0
    0.5782   -0.3190    3.1508 C   0  0  0  0  0  0
   -0.4682   -0.5641    2.9829 H   0  0  0  0  0  0
    0.7755   -0.5679    4.1917 H   0  0  0  0  0  0
    0.6910    0.7601    3.0381 H   0  0  0  0  0  0
   -2.0679    2.5151   -0.2819 C   0  0  0  0  0  0
   -0.7725    2.8673   -0.7098 C   0  0  0  0  0  0
    0.3017    1.9848   -0.4667 C   0  0  0  0  0  0
    0.1093    0.7572    0.2028 C   0  0  0  0  0  0
   -1.2073    0.4048    0.5719 C   0  0  0  0  0  0
   -2.2926    1.2783    0.3540 C   0  0  0  0  0  0
   -2.8929    3.1889   -0.4607 H   0  0  0  0  0  0
   -0.5295    4.1891   -1.4236 C   0  0  0  0  0  0
    1.2806    2.2616   -0.8254 H   0  0  0  0  0  0
   -1.4065   -0.5591    1.0155 H   0  0  0  0  0  0
   -3.6893    0.8626    0.7889 C   0  0  0  0  0  0
   -0.2472   -3.7491   -2.3970 C   0  0  0  0  0  0
    0.4023   -4.1460   -1.2125 C   0  0  0  0  0  0
    0.9536   -3.1655   -0.3590 C   0  0  0  0  0  0
    0.8755   -1.7908   -0.6740 C   0  0  0  0  0  0
    0.2433   -1.4238   -1.8846 C   0  0  0  0  0  0
   -0.3286   -2.3868   -2.7414 C   0  0  0  0  0  0
   -0.6786   -4.4933   -3.0500 H   0  0  0  0  0  0
    0.5152   -5.6238   -0.8695 C   0  0  0  0  0  0
    1.4477   -3.4962    0.5394 H   0  0  0  0  0  0
    0.1752   -0.3847   -2.1705 H   0  0  0  0  0  0
   -1.0625   -1.9580   -4.0036 C   0  0  0  0  0  0
   -2.3517   -1.8007   -3.7078 F   0  0  0  0  0  0
   -0.5904   -0.8014   -4.4694 F   0  0  0  0  0  0
   -0.9539   -2.8848   -4.9554 F   0  0  0  0  0  0
    0.6686   -5.8034    0.4431 F   0  0  0  0  0  0
   -0.5816   -6.2748   -1.2561 F   0  0  0  0  0  0
    1.5664   -6.1401   -1.5042 F   0  0  0  0  0  0
   -1.6342    4.6047   -2.0434 F   0  0  0  0  0  0
   -0.1657    5.1073   -0.5305 F   0  0  0  0  0  0
    0.4384    4.0590   -2.3314 F   0  0  0  0  0  0
   -4.1616   -0.0424   -0.0662 F   0  0  0  0  0  0
   -3.6385    0.3192    2.0055 F   0  0  0  0  0  0
   -4.5217    1.9031    0.8235 F   0  0  0  0  0  0
    4.4824   -1.7115   -0.9313 P   0  0  0  0  0  0
    9.0598   -2.0993   -2.0175 C   0  0  0  0  0  0
    8.1531   -1.5717   -2.9632 C   0  0  0  0  0  0
    6.7858   -1.4611   -2.6385 C   0  0  0  0  0  0
    6.3034   -1.8574   -1.3730 C   0  0  0  0  0  0
    7.2242   -2.3591   -0.4295 C   0  0  0  0  0  0
    8.5938   -2.4780   -0.7398 C   0  0  0  0  0  0
    6.1051   -1.0595   -3.3727 H   0  0  0  0  0  0
    6.8746   -2.6582    0.5461 H   0  0  0  0  0  0
    5.8996    1.2565   -0.3889 Cl  0  0  0  0  0  0
    3.2076    2.4752    0.9160 Cl  0  0  0  0  0  0
    6.2294   -1.5914    2.5047 H   0  0  0  0  0  0
    4.2083   -5.6846    0.3653 C   0  0  0  0  0  0
    3.7711   -5.5690    1.6931 C   0  0  0  0  0  0
    3.6606   -4.2972    2.2800 C   0  0  0  0  0  0
    3.9474   -3.1285    1.5406 C   0  0  0  0  0  0
    4.2629   -3.2380    0.1615 C   0  0  0  0  0  0
    4.4647   -4.5244   -0.3844 C   0  0  0  0  0  0
    4.3426   -6.6599   -0.0810 H   0  0  0  0  0  0
    3.5598   -6.4576    2.2712 H   0  0  0  0  0  0
    3.3770   -4.2524    3.3173 H   0  0  0  0  0  0
    4.8373   -4.6304   -1.3915 H   0  0  0  0  0  0
    2.4188   -2.0132   -5.1693 C   0  0  0  0  0  0
    2.8121   -0.7765   -4.6152 C   0  0  0  0  0  0
    3.4281   -0.7420   -3.3490 C   0  0  0  0  0  0
    3.6454   -1.9213   -2.6056 C   0  0  0  0  0  0
    3.2058   -3.1461   -3.1548 C   0  0  0  0  0  0
    2.6021   -3.1992   -4.4272 C   0  0  0  0  0  0
    3.7490    0.2064   -2.9430 H   0  0  0  0  0  0
    3.3019   -4.0669   -2.6111 H   0  0  0  0  0  0
    3.7784    0.3825    0.0369 Pd  0  0  0  0  0  0
    8.6358   -1.1140   -4.3261 C   0  0  0  0  0  0
    7.9694   -0.3592   -4.7438 H   0  0  0  0  0  0
    9.6318   -0.6756   -4.2572 H   0  0  0  0  0  0
    8.6756   -1.9570   -5.0152 H   0  0  0  0  0  0
    9.5568   -3.0098    0.3038 C   0  0  0  0  0  0
    9.1455   -2.9085    1.3080 H   0  0  0  0  0  0
    9.7657   -4.0636    0.1215 H   0  0  0  0  0  0
   10.4984   -2.4608    0.2717 H   0  0  0  0  0  0
   10.3893   -2.2230   -2.3268 O   0  0  0  0  0  0
   10.7094   -3.4634   -2.9358 C   0  0  0  0  0  0
   10.4650   -4.3017   -2.2825 H   0  0  0  0  0  0
   10.1777   -3.5943   -3.8788 H   0  0  0  0  0  0
   11.7781   -3.5021   -3.1455 H   0  0  0  0  0  0
    2.5749    0.5170   -5.3708 C   0  0  0  0  0  0
    1.6209    0.4849   -5.8984 H   0  0  0  0  0  0
    3.3669    0.6789   -6.1015 H   0  0  0  0  0  0
    2.5511    1.3716   -4.6945 H   0  0  0  0  0  0
    2.1443   -4.5342   -4.9842 C   0  0  0  0  0  0
    1.2137   -4.4235   -5.5416 H   0  0  0  0  0  0
    2.9000   -4.9391   -5.6568 H   0  0  0  0  0  0
    1.9717   -5.2582   -4.1879 H   0  0  0  0  0  0
    1.8284   -2.0588   -6.4041 O   0  0  0  0  0  0
    2.7563   -2.2153   -7.4653 C   0  0  0  0  0  0
    2.2226   -2.2433   -8.4150 H   0  0  0  0  0  0
    3.4634   -1.3860   -7.5022 H   0  0  0  0  0  0
    3.3184   -3.1447   -7.3686 H   0  0  0  0  0  0
  1  5  1  0  0  0
  1  2  2  0  0  0
  1 10  1  0  0  0
  2  3  1  0  0  0
  2  6  1  0  0  0
  3  4  2  0  0  0
  3  7  1  0  0  0
  4  5  1  0  0  0
  4  8  1  0  0  0
  5  9  1  0  0  0
 12 16  1  0  0  0
 12 13  2  0  0  0
 12 17  1  0  0  0
 13 71  1  0  0  0
 13 14  1  0  0  0
 14 75  1  0  0  0
 14 15  2  0  0  0
 15 19  1  0  0  0
 15 16  1  0  0  0
 16 18  1  0  0  0
 19 21  1  0  0  0
 19 22  1  0  0  0
 19 20  1  0  0  0
 20 40  1  0  0  0
 20 29  1  0  0  0
 22 23  1  0  0  0
 22 24  1  0  0  0
 22 25  1  0  0  0
 26 27  1  0  0  0
 26 31  2  0  0  0
 26 32  1  0  0  0
 27 28  2  0  0  0
 27 33  1  0  0  0
 28 34  1  0  0  0
 28 29  1  0  0  0
 29 30  2  0  0  0
 30 31  1  0  0  0
 30 35  1  0  0  0
 31 36  1  0  0  0
 33 55  1  0  0  0
 33 56  1  0  0  0
 33 54  1  0  0  0
 36 59  1  0  0  0
 36 57  1  0  0  0
 36 58  1  0  0  0
 37 43  1  0  0  0
 37 38  1  0  0  0
 37 42  2  0  0  0
 38 44  1  0  0  0
 38 39  2  0  0  0
 39 45  1  0  0  0
 39 40  1  0  0  0
 40 41  2  0  0  0
 41 42  1  0  0  0
 41 46  1  0  0  0
 42 47  1  0  0  0
 44 51  1  0  0  0
 44 53  1  0  0  0
 44 52  1  0  0  0
 47 49  1  0  0  0
 47 48  1  0  0  0
 47 50  1  0  0  0
 60 76  1  0  0  0
 60 64  1  0  0  0
 60 85  1  0  0  0
 61 66  1  0  0  0
 61 62  2  0  0  0
 61 99  1  0  0  0
 62 63  1  0  0  0
 62 91  1  0  0  0
 63 64  2  0  0  0
 63 67  1  0  0  0
 64 65  1  0  0  0
 65 68  1  0  0  0
 65 66  2  0  0  0
 66 95  1  0  0  0
 69 90  1  0  0  0
 70 90  1  0  0  0
 72 78  1  0  0  0
 72 73  1  0  0  0
 72 77  2  0  0  0
 73 79  1  0  0  0
 73 74  2  0  0  0
 74 80  1  0  0  0
 74 75  1  0  0  0
 75 76  2  0  0  0
 76 77  1  0  0  0
 77 81  1  0  0  0
 82 87  1  0  0  0
 82 83  2  0  0  0
 82112  1  0  0  0
 83 84  1  0  0  0
 83104  1  0  0  0
 84 85  2  0  0  0
 84 88  1  0  0  0
 85 86  1  0  0  0
 86 89  1  0  0  0
 86 87  2  0  0  0
 87108  1  0  0  0
 91 93  1  0  0  0
 91 92  1  0  0  0
 91 94  1  0  0  0
 95 98  1  0  0  0
 95 96  1  0  0  0
 95 97  1  0  0  0
 99100  1  0  0  0
100101  1  0  0  0
100102  1  0  0  0
100103  1  0  0  0
104106  1  0  0  0
104105  1  0  0  0
104107  1  0  0  0
108111  1  0  0  0
108109  1  0  0  0
108110  1  0  0  0
112113  1  0  0  0
113116  1  0  0  0
113115  1  0  0  0
113114  1  0  0  0
M  CHG  3   5  -1  11   2  16  -1
M  END
> <s_m_entry_id>
61

> <s_m_entry_name>
W005-1_1.1

> <program>
Gaussian 16, Revision B.01

> <s_m_Source_Path>
/uufs/chpc.utah.edu/common/home/u6034117/conf_cluster_6

> <s_m_Source_File>
conf_cluster_6_ligand1_representatives.maegz

> <i_m_Source_File_Index>
2

> <r_mmod_Potential_Energy-OPLS-2005>
464.4013671875

> <b_mmod_Minimization_Converged-OPLS-2005>
1

> <r_mmod_RMS_Derivative-OPLS-2005>
0.000910903268959373

> <i_mmod_Times_Found-OPLS-2005>
50

> <r_mmod_Relative_Potential_Energy-OPLS-2005>
9.73513793945312

> <i_mmod_Conformation-OPLS-2005>
16

> <i_mmod_Serial_Number-OPLS-2005>
1

> <s_m_job_name>
mmod_csearch_6

> <r_canvas_Distance_To_Centroid>
0.0237229075282812

> <b_canvas_Is_Nearest_To_Centroid>
1

> <b_canvas_Is_Farthest_From_Centroid>
1

> <r_canvas_Max_Distance_From_Centroid>
0.0237229075282812

> <r_canvas_Average_Distance_From_Centroid>
0.0237229075282812

> <r_canvas_Cluster_Variance>
0.000562776341595381

> <i_canvas_Canvas_Cluster_Index>
2

> <i_canvas_Canvas_Cluster_Size>
2

> <s_m_subgroup_title>
conf_cluster_6_ligand1_representatives

> <s_m_subgroupid>
conf_cluster_6_ligand1_representatives

> <b_m_subgroup_collapsed>
0

$$$$
