%nprocs=16
%mem=28GB
%chk=W005_1_1.chk
# PBEPBE gen 6D pseudo=read scf=maxcycles=500 denfit int=(grid=ultrafine) empiricaldispersion=GD3BJ opt freq=noraman

 W005_1

0 1
C    3.45250    -1.57540    5.87170
C    4.81230    -1.14420    5.98560
C    5.65210    -2.18580    5.47750
C    4.81130    -3.26290    5.05370
C    3.45090    -2.88460    5.29610
H    5.14500    -0.18030    6.34480
H    6.72880    -2.14620    5.38850
H    5.14700    -4.18460    4.59940
H    2.57390    -3.47160    5.06310
H    2.58100    -0.99620    6.14140
Fe    4.35340    -1.53230    4.01920
C    5.25030    -0.05780    2.92500
C    5.38690    -1.31940    2.25990
C    4.07870    -1.84360    1.98170
C    3.15160    -0.87390    2.48740
C    3.85580    0.21670    3.08530
H    6.06290    0.55620    3.28870
H    3.43470    1.08160    3.57910
C    1.64310    -0.93830    2.31430
P    1.50030    -0.41340    0.54510
H    1.30180    -1.95710    2.48420
C    0.90820    0.00370    3.28150
H    -0.17020    -0.13470    3.23760
H    1.19470    -0.18430    4.31550
H    1.11520    1.05240    3.06270
C    -2.32200    2.28260    -0.06040
C    -1.08760    2.68510    -0.60850
C    0.05550    1.88240    -0.40630
C    -0.01270    0.68410    0.33570
C    -1.26850    0.28070    0.83800
C    -2.41920    1.07640    0.66130
H    -3.19880    2.89600    -0.20810
C    -0.98400    3.97590    -1.40740
H    0.99010    2.19860    -0.84420
H    -1.36450    -0.65850    1.36310
C    -3.74990    0.61050    1.23150
C    -0.47100    -3.78390    -2.10880
C    -0.08430    -4.09520    -0.79280
C    0.53250    -3.10390    0.00230
C    0.77330    -1.80470    -0.49980
C    0.36710    -1.51870    -1.82180
C    -0.26100    -2.49310    -2.62710
H    -0.95070    -4.53630    -2.71780
C    -0.36170    -5.48890    -0.24790
H    0.82040    -3.36850    1.00500
H    0.51240    -0.52650    -2.22240
C    -0.73590    -2.16400    -4.03410
F    -1.95270    -2.67220    -4.22780
F    -0.79680    -0.84680    -4.23180
F    0.09670    -2.70200    -4.92150
F    -0.01880    -5.60140    1.03620
F    -1.66270    -5.75190    -0.35990
F    0.31850    -6.38940    -0.95600
F    -0.07190    3.85490    -2.37260
F    -2.15370    4.28070    -1.96970
F    -0.62550    4.96660    -0.59330
F    -4.24590    -0.34720    0.45030
F    -3.56850    0.11600    2.45640
F    -4.62790    1.61080    1.30300
P    4.40530    -1.50350    -1.11220
C    9.07290    -2.08230    -1.59160
C    8.38980    -1.09690    -2.33810
C    6.99820    -0.94040    -2.18140
C    6.26920    -1.73320    -1.27070
C    6.96720    -2.70770    -0.52450
C    8.35840    -2.87990    -0.67210
H    6.47790    -0.19580    -2.76670
H    6.43570    -3.33710    0.17140
Cl    5.61350    1.60580    -0.69680
Cl    2.98020    2.55980    0.89820
H    6.32630    -1.79730    2.02050
C    3.25290    -5.43830    -0.22290
C    3.14930    -5.43160    1.17690
C    3.40930    -4.24970    1.89170
C    3.78650    -3.06650    1.22010
C    3.88600    -3.06920    -0.19640
C    3.61110    -4.26120    -0.90220
H    3.04880    -6.34370    -0.77730
H    2.86380    -6.33370    1.70000
H    3.31600    -4.28240    2.96420
H    3.67190    -4.28990    -1.97750
C    3.31680    -1.72430    -5.69180
C    2.78200    -0.71070    -4.86810
C    3.09920    -0.67170    -3.49570
C    3.95030    -1.63670    -2.92380
C    4.51320    -2.62280    -3.76000
C    4.20900    -2.67380    -5.13540
H    2.70240    0.12030    -2.87960
H    5.21670    -3.32900    -3.34260
Pd    3.62710    0.54350    -0.09700
C    9.13340    -0.19540    -3.30470
H    8.63280    0.76870    -3.39810
H    10.15090    -0.00810    -2.96100
H    9.17890    -0.65540    -4.29140
C    9.07940    -3.92520    0.15660
H    8.48230    -4.23340    1.01470
H    9.29040    -4.80570    -0.44970
H    10.02490    -3.53040    0.53000
O    10.42430    -2.25780    -1.73940
C    10.76280    -3.13460    -2.80210
H    10.32650    -4.12320    -2.65430
H    10.42460    -2.74850    -3.76400
H    11.84550    -3.24940    -2.84950
C    1.87390    0.34650    -5.46570
H    1.41430    0.96770    -4.69710
H    1.07700    -0.12140    -6.04430
H    2.44390    0.99170    -6.13450
C    4.89190    -3.71920    -5.99720
H    5.15120    -3.30370    -6.97140
H    5.81440    -4.06880    -5.53330
H    4.23720    -4.57770    -6.14480
O    2.98750    -1.71880    -7.02530
C    2.28580    -2.86580    -7.48560
H    2.93870    -3.49310    -8.09210
H    1.87650    -3.47280    -6.67640
H    1.45360    -2.55000    -8.11460

P O H C F Cl 0
6-31G(d)
****
Fe Pd 0
LANL2DZ
****

Fe Pd 0
LANL2DZ

