%nprocs=28
%mem=128GB
%chk=XantPhos_1_SPE_NoPd.chk
# PBE1PBE/def2TZVP int=(grid=ultrafine) empiricaldispersion=GD3BJ nmr=giao 

XantPhos_1 title 

0 1
P    -1.5263561442    1.8432700648    -3.4091969206
C    -1.9126776092    2.8116763843    -1.8831763317
C    -3.1369393758    3.4140648787    -1.5482613039
C    -3.4004852917    3.7537222203    -0.2121505232
C    -2.485895332    3.4480000649    0.810902864
C    -1.2363397861    2.8829607733    0.5054095086
C    -0.9730234844    2.6592219757    -0.8519541334
O    0.2533095906    2.1445531924    -1.2232051679
C    -0.1417941282    2.455158404    1.500201242
C    -0.7121226574    2.2360346741    2.9096381183
C    0.9407515192    3.5713182068    1.5485182864
C    -2.1708245781    0.175847853    -2.9049982602
C    -2.3261021743    -0.2232501038    -1.564775334
C    -2.8290759736    -1.4963855394    -1.2575737155
C    -3.1890736876    -2.3802184335    -2.2816001963
C    -3.0283357652    -1.9927401348    -3.6206153207
C    -2.5164696169    -0.7296607288    -3.9312995681
C    -2.7770888507    2.272728477    -4.6885333437
C    -4.1442330218    2.0340194898    -4.4257163454
C    -4.7152841342    2.8033932651    -6.6564659115
C    -5.1079579452    2.3128053501    -5.4022408092
C    -3.3568914739    3.011384508    -6.9304946969
C    -2.3869611724    2.7514528123    -5.9522686365
H    -3.8895237666    3.589785299    -2.3218813234
H    -2.757279964    3.6519335397    1.8509278582
H    -4.3537748936    4.2260823655    0.0439593807
H    -1.4833243126    1.4473641647    2.9201566688
H    -1.1590324156    3.1673976483    3.2941328927
H    1.3631855584    3.7610506874    0.5487709788
H    0.4961357558    4.5107828637    1.9189078264
H    -4.4527957328    1.6055230138    -3.4668294864
H    -5.4691021795    3.0139518876    -7.4222481734
H    -3.043256361    3.3835747496    -7.9110043647
H    -1.3292210266    2.9407946875    -6.1518583029
H    -2.0836873325    0.4622805794    -0.7487808945
H    -2.95102109    -1.7870766275    -0.2088133613
H    -3.5904303656    -3.3698661897    -2.0400910447
H    -3.2927256448    -2.6811769423    -4.4290662821
H    -2.3989860183    -0.4360177017    -4.9787586828
P    1.5111210755    0.0585384326    -2.9691879678
C    1.3445180221    0.046815643    -1.1180736929
C    1.8796642079    -0.9817855915    -0.3142959758
C    1.6940424455    -0.960424234    1.0739900148
C    1.0087412542    0.0986618633    1.69663541
C    0.5188345469    1.175270108    0.9432285996
C    0.7123488774    1.106817361    -0.4487227183
C    0.6999537147    -1.4610775782    -3.6049273085
C    0.3165859477    -2.5576811998    -2.8156418262
C    -0.1762851062    -3.7189901238    -3.4267443817
C    -0.2825444896    -3.7955327735    -4.8223020607
C    0.0834534517    -2.6953424086    -5.6127473543
C    0.5646623788    -1.5278608234    -5.0083208449
C    3.2997184423    -0.367395218    -3.09098777
C    3.7442740528    -1.5817287352    -3.6416818702
C    6.0394419604    -0.9911755452    -3.1008114903
C    5.1138059009    -1.8888541058    -3.6456453471
C    5.5963879514    0.223354899    -2.5533805335
C    4.2351289618    0.5399063101    -2.5525298576
H    2.4462359108    -1.7932896781    -0.7820104487
H    0.8833700598    0.0880968057    2.7834855034
H    2.0996960053    -1.7725557809    1.6849520193
H    0.088429151    1.9543299231    3.6132321508
H    1.7610894526    3.2755183061    2.2247476923
H    3.0284267324    -2.2905997647    -4.066351997
H    3.8962274718    1.4994728784    -2.1521960085
H    0.3833636225    -2.5018662901    -1.7258572702
H    -0.483966607    -4.566274642    -2.8051287864
H    -0.660669266    -4.7084105514    -5.2940250591
H    -0.0088487338    -2.7436220884    -6.7026353642
H    0.8454814765    -0.6593352242    -5.6164341273
H    6.3166342971    0.9360097669    -2.1391555735
H    7.1073581303    -1.2327440714    -3.1065405172
H    5.4522474649    -2.8361001297    -4.0782234276
H    -6.1662690403    2.1335133689    -5.185990303

--Link1--
%nprocs=28
%mem=128GB
%chk=XantPhos_1_SPE_NoPd.chk
# PBE1PBE/def2TZVP int=(grid=ultrafine) empiricaldispersion=GD3BJ pop=nbo guess=read geom=check

XantPhos_1 title 

0 1

