%nprocs=28
%mem=128GB
%chk=XantPhos_4_SPE_NoPd.chk
# PBE1PBE/def2TZVP int=(grid=ultrafine) empiricaldispersion=GD3BJ nmr=giao 

XantPhos_4 title 

0 1
P    -1.5206408158    1.6502749746    -3.5842421286
C    -2.074826096    2.1770095467    -1.8950816509
C    -3.4322727012    2.4111183148    -1.5853797746
C    -3.8291236995    2.6425136621    -0.2626929331
C    -2.8859482041    2.6495712113    0.7789754212
C    -1.5213820951    2.4764035702    0.5079630714
C    -1.15525806    2.2713899418    -0.834888851
O    0.1843020362    2.1372509519    -1.1336933083
C    -0.3790502385    2.5224495384    1.5384661051
C    -0.8877367038    2.2959569995    2.9696620545
C    0.3030796228    3.9185610478    1.4529401271
C    -2.1478464108    -0.0686052265    -3.7856687333
C    -3.2909221393    -0.5626545902    -3.1311646684
C    -3.7728103978    -1.8424543991    -3.4328461564
C    -3.122101332    -2.6348067937    -4.3897426123
C    -1.9802706201    -2.1487389737    -5.0417092228
C    -1.4905234632    -0.8729627263    -4.736800439
C    -2.6825795215    2.5885193868    -4.6603132146
C    -2.8781140795    3.9669855553    -4.4342852187
C    -4.449070022    4.052752746    -6.2862499982
C    -3.7654260753    4.6890888958    -5.2392372734
C    -4.2457585278    2.6872714483    -6.5226123622
C    -3.3681252904    1.9536585301    -5.7118559525
H    -4.1735681638    2.4087697906    -2.3904015732
H    -3.2234839899    2.8087595944    1.8072783471
H    -4.8861460262    2.8133995287    -0.0370047554
H    -1.3851431788    1.31737024    3.0792456091
H    -1.6010361669    3.0861948461    3.2557346871
H    0.6848994519    4.1184572237    0.4392069981
H    -0.4214846369    4.7084567379    1.7149553156
H    -2.3308850146    4.4713598533    -3.6341880485
H    -5.1367877677    4.6232466556    -6.9190153813
H    -4.7745127666    2.1835981387    -7.3383724947
H    -3.2243855676    0.8855666829    -5.8978300548
H    -3.8009431821    0.0474531506    -2.38005228
H    -4.6606547747    -2.2228987031    -2.916727442
H    -3.4996819217    -3.6361536116    -4.6205395399
H    -1.4575739584    -2.7701358073    -5.7753377974
H    -0.5891811748    -0.4870779882    -5.2273292805
P    1.6489358451    0.0755364079    -2.6518001677
C    1.7451506276    0.3660665661    -0.8277325051
C    2.3971589535    -0.5098395904    0.0653470861
C    2.2113485069    -0.3821277556    1.4467772993
C    1.3321016205    0.5818716105    1.9680661382
C    0.6426304261    1.4538192053    1.1141786013
C    0.8938374557    1.3309281122    -0.2638509105
C    0.8202651959    -1.5859731356    -2.5835037314
C    1.2825503671    -2.6920370746    -3.3210193905
C    0.6325325658    -3.930621012    -3.222029805
C    -0.4845153821    -4.079447077    -2.3912138504
C    -0.9523117567    -2.9806580108    -1.6549780367
C    -0.3062165702    -1.7447617172    -1.7495588947
C    3.31483906    -0.3436652588    -3.2963755242
C    3.4007418853    -0.5920867001    -4.6821837183
C    5.7753778831    -1.0456013055    -4.4666952609
C    4.6226411371    -0.9516377556    -5.2605387599
C    5.6996087508    -0.7656775706    -3.0962948273
C    4.4757611805    -0.4161390975    -2.5091696622
H    3.0112438627    -1.3260474166    -0.3251127119
H    1.1710886476    0.6324675188    3.048784559
H    2.7291510319    -1.0654961248    2.1266297169
H    -0.0529301775    2.3475575076    3.6877409868
H    1.1502025466    3.9664370117    2.1582560965
H    2.5140252629    -0.4625156394    -5.3129760186
H    4.4419280676    -0.154946276    -1.4492898347
H    2.1657350729    -2.5957637883    -3.9580302054
H    1.0120371706    -4.7844306838    -3.7933255559
H    -0.9896486241    -5.0477618039    -2.3142310707
H    -1.8280035637    -3.0838950998    -1.0066271722
H    -0.6761788965    -0.8999408102    -1.1595097076
H    6.6017890098    -0.803163136    -2.4770781641
H    6.734467281    -1.3140822202    -4.9208470277
H    4.6784406891    -1.1341353887    -6.3384753901
H    -3.9107968232    5.7584786266    -5.055989461

--Link1--
%nprocs=28
%mem=128GB
%chk=XantPhos_4_SPE_NoPd.chk
# PBE1PBE/def2TZVP int=(grid=ultrafine) empiricaldispersion=GD3BJ pop=nbo guess=read geom=check

XantPhos_4 title 

0 1

