R-C4-Tunephos
                    3D
 Structure written by MMmdl.
 81 86  0  0  1  0            999 V2000
   -2.4472    0.0101   -0.0057 Pd  0  0  0  0  0  0
   -0.7661    1.7293    0.0556 P   0  0  0  0  0  0
   -0.1289    2.2284   -1.6302 C   0  0  0  0  0  0
   -0.9494    2.0482   -2.7633 C   0  0  0  0  0  0
   -0.4909    2.4108   -4.0449 C   0  0  0  0  0  0
    0.7951    2.9608   -4.2032 C   0  0  0  0  0  0
    1.6184    3.1513   -3.0777 C   0  0  0  0  0  0
    1.1550    2.7897   -1.7983 C   0  0  0  0  0  0
    1.7976    2.9286   -0.9401 H   0  0  0  0  0  0
    1.1492    3.2371   -5.1857 H   0  0  0  0  0  0
   -1.9410    1.6348   -2.6520 H   0  0  0  0  0  0
   -1.3518    3.3639    0.7909 C   0  0  0  0  0  0
   -0.9039    4.6108    0.2989 C   0  0  0  0  0  0
   -1.3508    5.8171    0.8723 C   0  0  0  0  0  0
   -2.2546    5.7936    1.9500 C   0  0  0  0  0  0
   -2.7089    4.5608    2.4517 C   0  0  0  0  0  0
   -2.2583    3.3579    1.8749 C   0  0  0  0  0  0
   -2.6162    2.4191    2.2713 H   0  0  0  0  0  0
   -2.6001    6.7187    2.3884 H   0  0  0  0  0  0
   -0.2121    4.6596   -0.5272 H   0  0  0  0  0  0
    0.7128    1.2478    1.1299 C   0  0  0  0  0  0
    0.7693    1.7888    2.4352 C   0  0  0  0  0  0
    1.8038    1.4626    3.3226 C   0  0  0  0  0  0
    2.8162    0.5895    2.9103 C   0  0  0  0  0  0
    2.7965    0.0415    1.6105 C   0  0  0  0  0  0
    1.7346    0.3425    0.7123 C   0  0  0  0  0  0
    1.7565   -0.2706   -0.6401 C   0  0  0  0  0  0
    2.8382    0.0469   -1.5114 C   0  0  0  0  0  0
    2.8792   -0.4919   -2.8175 C   0  0  0  0  0  0
    1.8826   -1.3719   -3.2526 C   0  0  0  0  0  0
    0.8372   -1.7168   -2.3867 C   0  0  0  0  0  0
    0.7521   -1.1842   -1.0805 C   0  0  0  0  0  0
   -0.7428   -1.6868   -0.0380 P   0  0  0  0  0  0
   -0.1388   -2.1877    1.6593 C   0  0  0  0  0  0
    1.1514   -2.7244    1.8565 C   0  0  0  0  0  0
    1.5886   -3.0875    3.1446 C   0  0  0  0  0  0
    0.7324   -2.9241    4.2495 C   0  0  0  0  0  0
   -0.5603   -2.3995    4.0619 C   0  0  0  0  0  0
   -0.9923   -2.0347    2.7718 C   0  0  0  0  0  0
   -1.9891   -1.6410    2.6379 H   0  0  0  0  0  0
    1.0667   -3.2015    5.2386 H   0  0  0  0  0  0
    1.8195   -2.8425    1.0147 H   0  0  0  0  0  0
   -1.2912   -3.3258   -0.7920 C   0  0  0  0  0  0
   -2.1829   -3.3279   -1.8882 C   0  0  0  0  0  0
   -2.6047   -4.5345   -2.4790 C   0  0  0  0  0  0
   -2.1355   -5.7627   -1.9795 C   0  0  0  0  0  0
   -1.2456   -5.7779   -0.8903 C   0  0  0  0  0  0
   -0.8275   -4.5679   -0.3029 C   0  0  0  0  0  0
   -0.1453   -4.6101    0.5316 H   0  0  0  0  0  0
   -2.4589   -6.6906   -2.4287 H   0  0  0  0  0  0
   -2.5517   -2.3928   -2.2833 H   0  0  0  0  0  0
    0.0911   -2.3989   -2.7593 H   0  0  0  0  0  0
    1.9191   -1.7830   -4.2508 H   0  0  0  0  0  0
    3.6663   -0.2378   -3.5084 H   0  0  0  0  0  0
    3.8282    0.8975   -1.0549 O   0  0  0  0  0  0
    5.1708    0.6641   -1.4835 C   0  0  0  0  0  0
    5.8011    1.4406   -1.0498 H   0  0  0  0  0  0
    5.2603    0.8008   -2.5604 H   0  0  0  0  0  0
    5.6999   -0.7251   -1.0547 C   0  0  0  0  0  0
    6.5703   -0.9647   -1.6655 H   0  0  0  0  0  0
    4.9694   -1.4991   -1.2885 H   0  0  0  0  0  0
    6.1151   -0.8583    0.4246 C   0  0  0  0  0  0
    6.2850   -1.9128    0.6439 H   0  0  0  0  0  0
    7.0750   -0.3631    0.5731 H   0  0  0  0  0  0
    5.1180   -0.2900    1.4437 C   0  0  0  0  0  0
    5.4367   -0.5527    2.4530 H   0  0  0  0  0  0
    3.8105   -0.7989    1.2080 O   0  0  0  0  0  0
    5.1303    0.8003    1.3792 H   0  0  0  0  0  0
    3.6055    0.3366    3.6013 H   0  0  0  0  0  0
    1.8196    1.8819    4.3180 H   0  0  0  0  0  0
    0.0097    2.4658    2.7896 H   0  0  0  0  0  0
   -4.1319    1.6171   -0.1161 Cl  0  0  0  0  0  0
   -4.1120   -1.6193    0.0765 Cl  0  0  0  0  0  0
   -1.0000    6.7614    0.4817 H   0  0  0  0  0  0
   -3.4059    4.5371    3.2770 H   0  0  0  0  0  0
   -1.1269    2.2687   -4.9066 H   0  0  0  0  0  0
    2.6082    3.5684   -3.1925 H   0  0  0  0  0  0
   -3.2910   -4.5173   -3.3133 H   0  0  0  0  0  0
   -0.8832   -6.7185   -0.5015 H   0  0  0  0  0  0
    2.5840   -3.4842    3.2818 H   0  0  0  0  0  0
   -1.2215   -2.2783    4.9077 H   0  0  0  0  0  0
  1 73  1  0  0  0
  1 72  1  0  0  0
  2 12  1  0  0  0
  2 21  1  0  0  0
  2  3  1  0  0  0
  3  4  2  0  0  0
  3  8  1  0  0  0
  4 11  1  0  0  0
  4  5  1  0  0  0
  5  6  2  0  0  0
  5 76  1  0  0  0
  6  7  1  0  0  0
  6 10  1  0  0  0
  7  8  2  0  0  0
  7 77  1  0  0  0
  8  9  1  0  0  0
 12 17  1  0  0  0
 12 13  2  0  0  0
 13 14  1  0  0  0
 13 20  1  0  0  0
 14 15  2  0  0  0
 14 74  1  0  0  0
 15 16  1  0  0  0
 15 19  1  0  0  0
 16 17  2  0  0  0
 16 75  1  0  0  0
 17 18  1  0  0  0
 21 22  1  0  0  0
 21 26  2  0  0  0
 22 71  1  0  0  0
 22 23  2  0  0  0
 23 70  1  0  0  0
 23 24  1  0  0  0
 24 69  1  0  0  0
 24 25  2  0  0  0
 25 26  1  0  0  0
 25 67  1  0  0  0
 26 27  1  0  0  0
 27 28  2  0  0  0
 27 32  1  0  0  0
 28 55  1  0  0  0
 28 29  1  0  0  0
 29 30  2  0  0  0
 29 54  1  0  0  0
 30 31  1  0  0  0
 30 53  1  0  0  0
 31 32  2  0  0  0
 31 52  1  0  0  0
 32 33  1  0  0  0
 33 34  1  0  0  0
 33 43  1  0  0  0
 34 35  2  0  0  0
 34 39  1  0  0  0
 35 36  1  0  0  0
 35 42  1  0  0  0
 36 37  2  0  0  0
 36 80  1  0  0  0
 37 41  1  0  0  0
 37 38  1  0  0  0
 38 39  2  0  0  0
 38 81  1  0  0  0
 39 40  1  0  0  0
 43 48  1  0  0  0
 43 44  2  0  0  0
 44 45  1  0  0  0
 44 51  1  0  0  0
 45 46  2  0  0  0
 45 78  1  0  0  0
 46 47  1  0  0  0
 46 50  1  0  0  0
 47 48  2  0  0  0
 47 79  1  0  0  0
 48 49  1  0  0  0
 55 56  1  0  0  0
 56 57  1  0  0  0
 56 59  1  0  0  0
 56 58  1  0  0  0
 59 62  1  0  0  0
 59 60  1  0  0  0
 59 61  1  0  0  0
 62 64  1  0  0  0
 62 63  1  0  0  0
 62 65  1  0  0  0
 65 68  1  0  0  0
 65 66  1  0  0  0
 65 67  1  0  0  0
M  END
> <s_m_entry_id>
284

> <s_m_entry_name>
R_C4_TUNEPHOS_2_SPE_Pd.1

> <program>
Gaussian 09, Revision E.01

> <chiral flag>
0

> <version>
0

> <s_m_Source_Path>
/home/sigmangrp/Dropbox/Current Group People/Jordan_D/OPT_10_26_21

> <s_m_Source_File>
R_C4_TUNEPHOS_2_SPE_Pd.log

> <i_m_Source_File_Index>
1

> <s_m_job_name>
mmod_csearch_2382

> <r_mmod_Potential_Energy-OPLS-2005>
296.46240234375

> <b_mmod_Minimization_Converged-OPLS-2005>
1

> <r_mmod_RMS_Derivative-OPLS-2005>
0.000744055490940809

> <i_mmod_Times_Found-OPLS-2005>
278

> <r_mmod_Relative_Potential_Energy-OPLS-2005>
3.3319091796875

> <i_mmod_Conformation-OPLS-2005>
2

> <i_mmod_Serial_Number-OPLS-2005>
3

> <s_m_subgroup_title>
mmod_csearch_2382-out1

> <s_m_subgroupid>
mmod_csearch_2382-out1

> <b_m_subgroup_collapsed>
0

$$$$
