R-C4-Tunephos
                    3D
 Structure written by MMmdl.
 81 86  0  0  1  0            999 V2000
   -2.4656    0.0144   -0.0009 Pd  0  0  0  0  0  0
   -0.7596    1.7091    0.0434 P   0  0  0  0  0  0
   -0.1313    2.2008   -1.6482 C   0  0  0  0  0  0
   -0.9690    2.0429   -2.7718 C   0  0  0  0  0  0
   -0.5184    2.4006   -4.0576 C   0  0  0  0  0  0
    0.7772    2.9232   -4.2295 C   0  0  0  0  0  0
    1.6180    3.0915   -3.1135 C   0  0  0  0  0  0
    1.1624    2.7349   -1.8299 C   0  0  0  0  0  0
    1.8185    2.8565   -0.9792 H   0  0  0  0  0  0
    1.1254    3.1957   -5.2153 H   0  0  0  0  0  0
   -1.9680    1.6506   -2.6500 H   0  0  0  0  0  0
   -1.3105    3.3531    0.7852 C   0  0  0  0  0  0
   -0.8304    4.5911    0.3014 C   0  0  0  0  0  0
   -1.2505    5.8052    0.8786 C   0  0  0  0  0  0
   -2.1591    5.7986    1.9524 C   0  0  0  0  0  0
   -2.6449    4.5747    2.4465 C   0  0  0  0  0  0
   -2.2209    3.3640    1.8659 C   0  0  0  0  0  0
   -2.6026    2.4324    2.2570 H   0  0  0  0  0  0
   -2.4840    6.7297    2.3938 H   0  0  0  0  0  0
   -0.1336    4.6269   -0.5212 H   0  0  0  0  0  0
    0.7190    1.2024    1.1068 C   0  0  0  0  0  0
    0.7715    1.7202    2.4209 C   0  0  0  0  0  0
    1.7985    1.3713    3.3070 C   0  0  0  0  0  0
    2.8148    0.5104    2.8798 C   0  0  0  0  0  0
    2.8119   -0.0019    1.5630 C   0  0  0  0  0  0
    1.7388    0.2999    0.6768 C   0  0  0  0  0  0
    1.7358   -0.3206   -0.6746 C   0  0  0  0  0  0
    2.8130   -0.0313   -1.5599 C   0  0  0  0  0  0
    2.8109   -0.5437   -2.8768 C   0  0  0  0  0  0
    1.7849   -1.3925   -3.3048 C   0  0  0  0  0  0
    0.7531   -1.7294   -2.4196 C   0  0  0  0  0  0
    0.7058   -1.2111   -1.1054 C   0  0  0  0  0  0
   -0.7797   -1.7003   -0.0435 P   0  0  0  0  0  0
   -0.1588   -2.1991    1.6488 C   0  0  0  0  0  0
    1.1283   -2.7483    1.8319 C   0  0  0  0  0  0
    1.5784   -3.1102    3.1159 C   0  0  0  0  0  0
    0.7385   -2.9321    4.2311 C   0  0  0  0  0  0
   -0.5507   -2.3944    4.0578 C   0  0  0  0  0  0
   -0.9958   -2.0315    2.7716 C   0  0  0  0  0  0
   -1.9900   -1.6276    2.6487 H   0  0  0  0  0  0
    1.0824   -3.2086    5.2172 H   0  0  0  0  0  0
    1.7838   -2.8776    0.9819 H   0  0  0  0  0  0
   -1.3492   -3.3378   -0.7856 C   0  0  0  0  0  0
   -2.2587   -3.3381   -1.8671 C   0  0  0  0  0  0
   -2.6963   -4.5439   -2.4480 C   0  0  0  0  0  0
   -2.2252   -5.7733   -1.9534 C   0  0  0  0  0  0
   -1.3176   -5.7905   -0.8789 C   0  0  0  0  0  0
   -0.8839   -4.5812   -0.3014 C   0  0  0  0  0  0
   -0.1883   -4.6251    0.5218 H   0  0  0  0  0  0
   -2.5606   -6.7005   -2.3951 H   0  0  0  0  0  0
   -2.6291   -2.4022   -2.2586 H   0  0  0  0  0  0
   -0.0155   -2.3901   -2.7848 H   0  0  0  0  0  0
    1.7892   -1.7863   -4.3107 H   0  0  0  0  0  0
    3.5902   -0.2844   -3.5766 H   0  0  0  0  0  0
    3.8340    0.7829   -1.1149 O   0  0  0  0  0  0
    5.1439    0.5209   -1.6078 C   0  0  0  0  0  0
    5.3782    1.2777   -2.3570 H   0  0  0  0  0  0
    5.2432   -0.4513   -2.0922 H   0  0  0  0  0  0
    6.1658    0.5796   -0.4633 C   0  0  0  0  0  0
    6.0430    1.5010    0.1068 H   0  0  0  0  0  0
    7.1548    0.6425   -0.9180 H   0  0  0  0  0  0
    6.1582   -0.6524    0.4690 C   0  0  0  0  0  0
    6.0249   -1.5723   -0.1011 H   0  0  0  0  0  0
    7.1460   -0.7271    0.9245 H   0  0  0  0  0  0
    5.1361   -0.5816    1.6127 C   0  0  0  0  0  0
    5.3608   -1.3412    2.3621 H   0  0  0  0  0  0
    3.8236   -0.8282    1.1188 O   0  0  0  0  0  0
    5.2465    0.3893    2.0972 H   0  0  0  0  0  0
    3.5904    0.2420    3.5803 H   0  0  0  0  0  0
    1.8066    1.7651    4.3128 H   0  0  0  0  0  0
    0.0104    2.3900    2.7855 H   0  0  0  0  0  0
   -4.1298    1.6430   -0.1036 Cl  0  0  0  0  0  0
   -4.1491   -1.5944    0.1001 Cl  0  0  0  0  0  0
   -0.8752    6.7425    0.4940 H   0  0  0  0  0  0
   -3.3455    4.5640    3.2690 H   0  0  0  0  0  0
   -1.1677    2.2756   -4.9120 H   0  0  0  0  0  0
    2.6152    3.4874   -3.2387 H   0  0  0  0  0  0
   -3.3960   -4.5250   -3.2711 H   0  0  0  0  0  0
   -0.9536   -6.7320   -0.4939 H   0  0  0  0  0  0
    2.5708   -3.5177    3.2421 H   0  0  0  0  0  0
   -1.1994   -2.2619    4.9115 H   0  0  0  0  0  0
  1 73  1  0  0  0
  1 72  1  0  0  0
  2 12  1  0  0  0
  2 21  1  0  0  0
  2  3  1  0  0  0
  3  4  2  0  0  0
  3  8  1  0  0  0
  4 11  1  0  0  0
  4  5  1  0  0  0
  5  6  2  0  0  0
  5 76  1  0  0  0
  6  7  1  0  0  0
  6 10  1  0  0  0
  7  8  2  0  0  0
  7 77  1  0  0  0
  8  9  1  0  0  0
 12 17  1  0  0  0
 12 13  2  0  0  0
 13 14  1  0  0  0
 13 20  1  0  0  0
 14 15  2  0  0  0
 14 74  1  0  0  0
 15 16  1  0  0  0
 15 19  1  0  0  0
 16 17  2  0  0  0
 16 75  1  0  0  0
 17 18  1  0  0  0
 21 22  1  0  0  0
 21 26  2  0  0  0
 22 71  1  0  0  0
 22 23  2  0  0  0
 23 70  1  0  0  0
 23 24  1  0  0  0
 24 69  1  0  0  0
 24 25  2  0  0  0
 25 26  1  0  0  0
 25 67  1  0  0  0
 26 27  1  0  0  0
 27 28  2  0  0  0
 27 32  1  0  0  0
 28 55  1  0  0  0
 28 29  1  0  0  0
 29 30  2  0  0  0
 29 54  1  0  0  0
 30 31  1  0  0  0
 30 53  1  0  0  0
 31 32  2  0  0  0
 31 52  1  0  0  0
 32 33  1  0  0  0
 33 34  1  0  0  0
 33 43  1  0  0  0
 34 35  2  0  0  0
 34 39  1  0  0  0
 35 36  1  0  0  0
 35 42  1  0  0  0
 36 37  2  0  0  0
 36 80  1  0  0  0
 37 41  1  0  0  0
 37 38  1  0  0  0
 38 39  2  0  0  0
 38 81  1  0  0  0
 39 40  1  0  0  0
 43 48  1  0  0  0
 43 44  2  0  0  0
 44 45  1  0  0  0
 44 51  1  0  0  0
 45 46  2  0  0  0
 45 78  1  0  0  0
 46 47  1  0  0  0
 46 50  1  0  0  0
 47 48  2  0  0  0
 47 79  1  0  0  0
 48 49  1  0  0  0
 55 56  1  0  0  0
 56 57  1  0  0  0
 56 59  1  0  0  0
 56 58  1  0  0  0
 59 62  1  0  0  0
 59 60  1  0  0  0
 59 61  1  0  0  0
 62 64  1  0  0  0
 62 63  1  0  0  0
 62 65  1  0  0  0
 65 68  1  0  0  0
 65 66  1  0  0  0
 65 67  1  0  0  0
M  END
> <s_m_entry_id>
285

> <s_m_entry_name>
R_C4_TUNEPHOS_2_SPE_Pd.1

> <program>
Gaussian 09, Revision E.01

> <chiral flag>
0

> <version>
0

> <s_m_Source_Path>
/home/sigmangrp/Dropbox/Current Group People/Jordan_D/OPT_10_26_21

> <s_m_Source_File>
R_C4_TUNEPHOS_2_SPE_Pd.log

> <i_m_Source_File_Index>
1

> <s_m_job_name>
mmod_csearch_2382

> <r_mmod_Potential_Energy-OPLS-2005>
298.364410400391

> <b_mmod_Minimization_Converged-OPLS-2005>
1

> <r_mmod_RMS_Derivative-OPLS-2005>
0.000864741741679609

> <i_mmod_Times_Found-OPLS-2005>
266

> <r_mmod_Relative_Potential_Energy-OPLS-2005>
5.23391723632812

> <i_mmod_Conformation-OPLS-2005>
3

> <i_mmod_Serial_Number-OPLS-2005>
3

> <s_m_subgroup_title>
mmod_csearch_2382-out1

> <s_m_subgroupid>
mmod_csearch_2382-out1

> <b_m_subgroup_collapsed>
0

$$$$
