R-C4-Tunephos
                    3D
 Structure written by MMmdl.
 81 86  0  0  1  0            999 V2000
   -2.4042    0.0141   -0.0007 Pd  0  0  0  0  0  0
   -0.7158    1.7289    0.0411 P   0  0  0  0  0  0
   -0.1050    2.2269   -1.6538 C   0  0  0  0  0  0
   -0.9295    2.0184   -2.7790 C   0  0  0  0  0  0
   -0.4887    2.3803   -4.0670 C   0  0  0  0  0  0
    0.7835    2.9577   -4.2394 C   0  0  0  0  0  0
    1.6104    3.1762   -3.1216 C   0  0  0  0  0  0
    1.1643    2.8153   -1.8359 C   0  0  0  0  0  0
    1.8087    2.9759   -0.9829 H   0  0  0  0  0  0
    1.1244    3.2333   -5.2268 H   0  0  0  0  0  0
   -1.9105    1.5834   -2.6570 H   0  0  0  0  0  0
   -1.3011    3.3574    0.7877 C   0  0  0  0  0  0
   -0.9142    4.6101    0.2605 C   0  0  0  0  0  0
   -1.3629    5.8099    0.8461 C   0  0  0  0  0  0
   -2.2076    5.7734    1.9704 C   0  0  0  0  0  0
   -2.6019    4.5342    2.5062 C   0  0  0  0  0  0
   -2.1499    3.3377    1.9172 C   0  0  0  0  0  0
   -2.4617    2.3934    2.3385 H   0  0  0  0  0  0
   -2.5546    6.6935    2.4181 H   0  0  0  0  0  0
   -0.2697    4.6686   -0.6026 H   0  0  0  0  0  0
    0.7856    1.2619    1.0881 C   0  0  0  0  0  0
    0.9322    1.8614    2.3598 C   0  0  0  0  0  0
    1.9900    1.5174    3.2144 C   0  0  0  0  0  0
    2.9224    0.5506    2.8163 C   0  0  0  0  0  0
    2.8095   -0.0627    1.5492 C   0  0  0  0  0  0
    1.7484    0.2986    0.6740 C   0  0  0  0  0  0
    1.7454   -0.3194   -0.6715 C   0  0  0  0  0  0
    2.8112    0.0297   -1.5460 C   0  0  0  0  0  0
    2.9180   -0.5849   -2.8130 C   0  0  0  0  0  0
    1.9745   -1.5406   -3.2120 C   0  0  0  0  0  0
    0.9120   -1.8722   -2.3583 C   0  0  0  0  0  0
    0.7716   -1.2712   -1.0867 C   0  0  0  0  0  0
   -0.7361   -1.7206   -0.0411 P   0  0  0  0  0  0
   -0.1328   -2.2257    1.6544 C   0  0  0  0  0  0
    1.1294   -2.8289    1.8377 C   0  0  0  0  0  0
    1.5700   -3.1950    3.1238 C   0  0  0  0  0  0
    0.7446   -2.9670    4.2408 C   0  0  0  0  0  0
   -0.5206   -2.3750    4.0672 C   0  0  0  0  0  0
   -0.9559   -2.0078    2.7788 C   0  0  0  0  0  0
   -1.9317   -1.5615    2.6559 H   0  0  0  0  0  0
    1.0812   -3.2467    5.2285 H   0  0  0  0  0  0
    1.7728   -2.9969    0.9853 H   0  0  0  0  0  0
   -1.3398   -3.3420   -0.7882 C   0  0  0  0  0  0
   -2.1876   -3.3124   -1.9183 C   0  0  0  0  0  0
   -2.6530   -4.5035   -2.5078 C   0  0  0  0  0  0
   -2.2734   -5.7473   -1.9719 C   0  0  0  0  0  0
   -1.4300   -5.7937   -0.8470 C   0  0  0  0  0  0
   -0.9678   -4.5992   -0.2609 C   0  0  0  0  0  0
   -0.3246   -4.6653    0.6026 H   0  0  0  0  0  0
   -2.6308   -6.6632   -2.4199 H   0  0  0  0  0  0
   -2.4880   -2.3645   -2.3397 H   0  0  0  0  0  0
    0.2007   -2.6007   -2.7111 H   0  0  0  0  0  0
    2.0547   -2.0077   -4.1827 H   0  0  0  0  0  0
    3.6993   -0.3243   -3.5074 H   0  0  0  0  0  0
    3.6844    1.0146   -1.1251 O   0  0  0  0  0  0
    5.0485    0.9650   -1.5241 C   0  0  0  0  0  0
    5.4896    1.9319   -1.2807 H   0  0  0  0  0  0
    5.1716    0.8629   -2.6005 H   0  0  0  0  0  0
    5.8049   -0.1369   -0.7627 C   0  0  0  0  0  0
    6.8357   -0.1527   -1.1171 H   0  0  0  0  0  0
    5.3917   -1.1131   -1.0201 H   0  0  0  0  0  0
    5.8055    0.0681    0.7684 C   0  0  0  0  0  0
    6.8362    0.0716    1.1236 H   0  0  0  0  0  0
    5.4038    1.0491    1.0254 H   0  0  0  0  0  0
    5.0355   -1.0247    1.5292 C   0  0  0  0  0  0
    5.4652   -1.9968    1.2862 H   0  0  0  0  0  0
    3.6712   -1.0581    1.1291 O   0  0  0  0  0  0
    5.1589   -0.9240    2.6058 H   0  0  0  0  0  0
    3.7001    0.2809    3.5113 H   0  0  0  0  0  0
    2.0749    1.9837    4.1850 H   0  0  0  0  0  0
    0.2293    2.5985    2.7119 H   0  0  0  0  0  0
   -4.0739    1.6388   -0.0921 Cl  0  0  0  0  0  0
   -4.0930   -1.5909    0.0893 Cl  0  0  0  0  0  0
   -1.0594    6.7591    0.4288 H   0  0  0  0  0  0
   -3.2542    4.5006    3.3669 H   0  0  0  0  0  0
   -1.1273    2.2164   -4.9228 H   0  0  0  0  0  0
    2.5897    3.6142   -3.2470 H   0  0  0  0  0  0
   -3.3042   -4.4623   -3.3689 H   0  0  0  0  0  0
   -1.1378   -6.7464   -0.4295 H   0  0  0  0  0  0
    2.5441   -3.6445    3.2501 H   0  0  0  0  0  0
   -1.1582   -2.2037    4.9223 H   0  0  0  0  0  0
  1 73  1  0  0  0
  1 72  1  0  0  0
  2 12  1  0  0  0
  2 21  1  0  0  0
  2  3  1  0  0  0
  3  4  2  0  0  0
  3  8  1  0  0  0
  4 11  1  0  0  0
  4  5  1  0  0  0
  5  6  2  0  0  0
  5 76  1  0  0  0
  6  7  1  0  0  0
  6 10  1  0  0  0
  7  8  2  0  0  0
  7 77  1  0  0  0
  8  9  1  0  0  0
 12 17  1  0  0  0
 12 13  2  0  0  0
 13 14  1  0  0  0
 13 20  1  0  0  0
 14 15  2  0  0  0
 14 74  1  0  0  0
 15 16  1  0  0  0
 15 19  1  0  0  0
 16 17  2  0  0  0
 16 75  1  0  0  0
 17 18  1  0  0  0
 21 22  1  0  0  0
 21 26  2  0  0  0
 22 71  1  0  0  0
 22 23  2  0  0  0
 23 70  1  0  0  0
 23 24  1  0  0  0
 24 69  1  0  0  0
 24 25  2  0  0  0
 25 26  1  0  0  0
 25 67  1  0  0  0
 26 27  1  0  0  0
 27 28  2  0  0  0
 27 32  1  0  0  0
 28 55  1  0  0  0
 28 29  1  0  0  0
 29 30  2  0  0  0
 29 54  1  0  0  0
 30 31  1  0  0  0
 30 53  1  0  0  0
 31 32  2  0  0  0
 31 52  1  0  0  0
 32 33  1  0  0  0
 33 34  1  0  0  0
 33 43  1  0  0  0
 34 35  2  0  0  0
 34 39  1  0  0  0
 35 36  1  0  0  0
 35 42  1  0  0  0
 36 37  2  0  0  0
 36 80  1  0  0  0
 37 41  1  0  0  0
 37 38  1  0  0  0
 38 39  2  0  0  0
 38 81  1  0  0  0
 39 40  1  0  0  0
 43 48  1  0  0  0
 43 44  2  0  0  0
 44 45  1  0  0  0
 44 51  1  0  0  0
 45 46  2  0  0  0
 45 78  1  0  0  0
 46 47  1  0  0  0
 46 50  1  0  0  0
 47 48  2  0  0  0
 47 79  1  0  0  0
 48 49  1  0  0  0
 55 56  1  0  0  0
 56 57  1  0  0  0
 56 59  1  0  0  0
 56 58  1  0  0  0
 59 62  1  0  0  0
 59 60  1  0  0  0
 59 61  1  0  0  0
 62 64  1  0  0  0
 62 63  1  0  0  0
 62 65  1  0  0  0
 65 68  1  0  0  0
 65 66  1  0  0  0
 65 67  1  0  0  0
M  END
> <s_m_entry_id>
283

> <s_m_entry_name>
R_C4_TUNEPHOS_2_SPE_Pd.1

> <program>
Gaussian 09, Revision E.01

> <chiral flag>
0

> <version>
0

> <s_m_Source_Path>
/home/sigmangrp/Dropbox/Current Group People/Jordan_D/OPT_10_26_21

> <s_m_Source_File>
R_C4_TUNEPHOS_2_SPE_Pd.log

> <i_m_Source_File_Index>
1

> <s_m_job_name>
mmod_csearch_2382

> <r_mmod_Potential_Energy-OPLS-2005>
293.130493164062

> <b_mmod_Minimization_Converged-OPLS-2005>
1

> <r_mmod_RMS_Derivative-OPLS-2005>
0.000961995625402778

> <i_mmod_Times_Found-OPLS-2005>
289

> <r_mmod_Relative_Potential_Energy-OPLS-2005>
0

> <i_mmod_Conformation-OPLS-2005>
1

> <i_mmod_Serial_Number-OPLS-2005>
3

> <s_m_subgroup_title>
mmod_csearch_2382-out1

> <s_m_subgroupid>
mmod_csearch_2382-out1

> <b_m_subgroup_collapsed>
0

$$$$
