%nprocs=14
%mem=128GB
%chk=SS_Et_DuPhos_2.chk
# PBEPBE gen 6D pseudo=read scf=maxcycles=500 denfit int=(grid=ultrafine) empiricaldispersion=GD3BJ opt freq=noraman

 SS_Et_DuPhos

0 1
Cl    -1.11950    -3.93230    1.16620
P    -1.58580    -0.70760    0.10170
P    1.56920    -0.14290    0.32320
C    -0.94590    1.01640    -0.30270
C    0.44270    1.27100    -0.16490
C    -2.97680    -0.70880    1.31650
H    -2.74090    -1.38730    2.13760
C    -2.51540    -1.16740    -1.41840
H    -2.26870    -0.49950    -2.24510
C    2.52430    0.46710    1.76600
H    2.31680    1.52970    1.89790
C    2.94700    -0.29080    -0.88400
H    3.22270    -1.34510    -0.93790
C    -4.13660    -1.30390    0.50060
H    -4.11340    -2.38960    0.60560
H    -5.10880    -0.98650    0.87900
C    -3.97560    -0.95240    -0.98920
H    -4.24170    0.09460    -1.13230
H    -4.66830    -1.52510    -1.60690
C    3.98580    0.29710    1.32110
H    4.64180    0.99130    1.84730
H    4.32860    -0.70750    1.57420
C    4.09240    0.47170    -0.20290
H    5.06220    0.13560    -0.57140
H    4.02050    1.53350    -0.44000
C    -3.35200    0.66140    1.92190
H    -3.63800    1.35830    1.13700
H    -4.24860    0.53500    2.52970
C    -2.28120    -2.62610    -1.86090
H    -2.95530    -2.85760    -2.68640
H    -2.56750    -3.30520    -1.05930
C    2.20940    -0.26730    3.08250
H    2.83620    0.14530    3.87400
H    2.49290    -1.31580    3.00190
C    2.64740    0.20570    -2.31200
H    2.44860    1.27690    -2.30520
H    3.54270    0.07780    -2.92140
C    -2.27800    1.29910    2.81050
H    -2.63320    2.24250    3.22530
H    -1.36390    1.51520    2.26100
H    -2.02710    0.64710    3.64670
C    -0.85240    -2.94600    -2.31260
H    -0.11230    -2.70680    -1.55220
H    -0.75160    -4.00670    -2.54400
H    -0.60470    -2.39170    -3.21710
C    0.74460    -0.18170    3.52060
H    0.07050    -0.61910    2.78580
H    0.45280    0.85690    3.67450
H    0.59020    -0.70990    4.46170
C    1.48170    -0.51010    -2.99920
H    1.66280    -1.58350    -3.05160
H    0.54240    -0.34440    -2.47310
H    1.35060    -0.14550    -4.01810
C    -1.79420    2.05170    -0.74860
H    -2.84730    1.86970    -0.88960
C    -1.28350    3.33700    -1.00760
H    -1.94460    4.12410    -1.33960
C    0.08680    3.59690    -0.82930
H    0.48100    4.58360    -1.02370
C    0.94600    2.56460    -0.41150
H    1.99990    2.76550    -0.29470
Cl    2.16710    -3.37550    1.17940
Pd    0.26460    -2.11480    0.70480

H Cl C P 0
6-31G(d)
****
Pd 0
LANL2DZ
****

Pd 0
LANL2DZ

