SS_Et_DuPhos
                    3D
 Structure written by MMmdl.
 63 64  0  0  1  0            999 V2000
   -1.1195   -3.9323    1.1662 Cl  0  0  0  0  0  0
   -1.5858   -0.7076    0.1017 P   0  0  1  0  0  0
    1.5692   -0.1429    0.3232 P   0  0  2  0  0  0
   -0.9459    1.0164   -0.3027 C   0  0  0  0  0  0
    0.4427    1.2710   -0.1649 C   0  0  0  0  0  0
   -2.9768   -0.7088    1.3165 C   0  0  2  0  0  0
   -2.7409   -1.3873    2.1376 H   0  0  0  0  0  0
   -2.5154   -1.1674   -1.4184 C   0  0  2  0  0  0
   -2.2687   -0.4995   -2.2451 H   0  0  0  0  0  0
    2.5243    0.4671    1.7660 C   0  0  2  0  0  0
    2.3168    1.5297    1.8979 H   0  0  0  0  0  0
    2.9470   -0.2908   -0.8840 C   0  0  2  0  0  0
    3.2227   -1.3451   -0.9379 H   0  0  0  0  0  0
   -4.1366   -1.3039    0.5006 C   0  0  0  0  0  0
   -4.1134   -2.3896    0.6056 H   0  0  0  0  0  0
   -5.1088   -0.9865    0.8790 H   0  0  0  0  0  0
   -3.9756   -0.9524   -0.9892 C   0  0  0  0  0  0
   -4.2417    0.0946   -1.1323 H   0  0  0  0  0  0
   -4.6683   -1.5251   -1.6069 H   0  0  0  0  0  0
    3.9858    0.2971    1.3211 C   0  0  0  0  0  0
    4.6418    0.9913    1.8473 H   0  0  0  0  0  0
    4.3286   -0.7075    1.5742 H   0  0  0  0  0  0
    4.0924    0.4717   -0.2029 C   0  0  0  0  0  0
    5.0622    0.1356   -0.5714 H   0  0  0  0  0  0
    4.0205    1.5335   -0.4400 H   0  0  0  0  0  0
   -3.3520    0.6614    1.9219 C   0  0  0  0  0  0
   -3.6380    1.3583    1.1370 H   0  0  0  0  0  0
   -4.2486    0.5350    2.5297 H   0  0  0  0  0  0
   -2.2812   -2.6261   -1.8609 C   0  0  0  0  0  0
   -2.9553   -2.8576   -2.6864 H   0  0  0  0  0  0
   -2.5675   -3.3052   -1.0593 H   0  0  0  0  0  0
    2.2094   -0.2673    3.0825 C   0  0  0  0  0  0
    2.8362    0.1453    3.8740 H   0  0  0  0  0  0
    2.4929   -1.3158    3.0019 H   0  0  0  0  0  0
    2.6474    0.2057   -2.3120 C   0  0  0  0  0  0
    2.4486    1.2769   -2.3052 H   0  0  0  0  0  0
    3.5427    0.0778   -2.9214 H   0  0  0  0  0  0
   -2.2780    1.2991    2.8105 C   0  0  0  0  0  0
   -2.6332    2.2425    3.2253 H   0  0  0  0  0  0
   -1.3639    1.5152    2.2610 H   0  0  0  0  0  0
   -2.0271    0.6471    3.6467 H   0  0  0  0  0  0
   -0.8524   -2.9460   -2.3126 C   0  0  0  0  0  0
   -0.1123   -2.7068   -1.5522 H   0  0  0  0  0  0
   -0.7516   -4.0067   -2.5440 H   0  0  0  0  0  0
   -0.6047   -2.3917   -3.2171 H   0  0  0  0  0  0
    0.7446   -0.1817    3.5206 C   0  0  0  0  0  0
    0.0705   -0.6191    2.7858 H   0  0  0  0  0  0
    0.4528    0.8569    3.6745 H   0  0  0  0  0  0
    0.5902   -0.7099    4.4617 H   0  0  0  0  0  0
    1.4817   -0.5101   -2.9992 C   0  0  0  0  0  0
    1.6628   -1.5835   -3.0516 H   0  0  0  0  0  0
    0.5424   -0.3444   -2.4731 H   0  0  0  0  0  0
    1.3506   -0.1455   -4.0181 H   0  0  0  0  0  0
   -1.7942    2.0517   -0.7486 C   0  0  0  0  0  0
   -2.8473    1.8697   -0.8896 H   0  0  0  0  0  0
   -1.2835    3.3370   -1.0076 C   0  0  0  0  0  0
   -1.9446    4.1241   -1.3396 H   0  0  0  0  0  0
    0.0868    3.5969   -0.8293 C   0  0  0  0  0  0
    0.4810    4.5836   -1.0237 H   0  0  0  0  0  0
    0.9460    2.5646   -0.4115 C   0  0  0  0  0  0
    1.9999    2.7655   -0.2947 H   0  0  0  0  0  0
    2.1671   -3.3755    1.1794 Cl  0  0  0  0  0  0
    0.2646   -2.1148    0.7048 Pd  0  0  0  0  0  0
  1 63  1  0  0  0
  2  4  1  0  0  0
  2  6  1  0  0  0
  2  8  1  0  0  0
  3  5  1  0  0  0
  3 10  1  0  0  0
  3 12  1  0  0  0
  4  5  1  0  0  0
  4 54  2  0  0  0
  5 60  2  0  0  0
  6  7  1  0  0  0
  6 26  1  0  0  0
  6 14  1  0  0  0
  8  9  1  0  0  0
  8 17  1  0  0  0
  8 29  1  0  0  0
 10 11  1  0  0  0
 10 32  1  0  0  0
 10 20  1  0  0  0
 12 13  1  0  0  0
 12 23  1  0  0  0
 12 35  1  0  0  0
 14 15  1  0  0  0
 14 16  1  0  0  0
 14 17  1  0  0  0
 17 19  1  0  0  0
 17 18  1  0  0  0
 20 21  1  0  0  0
 20 22  1  0  0  0
 20 23  1  0  0  0
 23 25  1  0  0  0
 23 24  1  0  0  0
 26 27  1  0  0  0
 26 38  1  0  0  0
 26 28  1  0  0  0
 29 31  1  0  0  0
 29 30  1  0  0  0
 29 42  1  0  0  0
 32 46  1  0  0  0
 32 33  1  0  0  0
 32 34  1  0  0  0
 35 36  1  0  0  0
 35 37  1  0  0  0
 35 50  1  0  0  0
 38 41  1  0  0  0
 38 40  1  0  0  0
 38 39  1  0  0  0
 42 43  1  0  0  0
 42 44  1  0  0  0
 42 45  1  0  0  0
 46 48  1  0  0  0
 46 49  1  0  0  0
 46 47  1  0  0  0
 50 51  1  0  0  0
 50 52  1  0  0  0
 50 53  1  0  0  0
 54 56  1  0  0  0
 54 55  1  0  0  0
 56 58  2  0  0  0
 56 57  1  0  0  0
 58 59  1  0  0  0
 58 60  1  0  0  0
 60 61  1  0  0  0
 62 63  1  0  0  0
M  END
> <s_m_entry_id>
387

> <s_m_entry_name>
SS_Et_DuPhos_6.1

> <program>
Gaussian 09, Revision D.01

> <chiral flag>
1

> <version>
0

> <s_m_Source_Path>
/home/sigmangrp/Documents/Schrodinger/conf_cluster_735

> <s_m_Source_File>
conf_cluster_735_ligand1_representatives.maegz

> <i_m_Source_File_Index>
2

> <r_mmod_Potential_Energy-OPLS-2005>
25.3039741516113

> <b_mmod_Minimization_Converged-OPLS-2005>
1

> <r_mmod_RMS_Derivative-OPLS-2005>
0.000961952027864754

> <i_mmod_Times_Found-OPLS-2005>
113

> <r_mmod_Relative_Potential_Energy-OPLS-2005>
0

> <i_mmod_Conformation-OPLS-2005>
1

> <i_mmod_Serial_Number-OPLS-2005>
8

> <s_m_job_name>
mmod_csearch_2421

> <r_canvas_Distance_To_Centroid>
0.0171735696494579

> <b_canvas_Is_Nearest_To_Centroid>
1

> <b_canvas_Is_Farthest_From_Centroid>
1

> <r_canvas_Max_Distance_From_Centroid>
0.0171735696494579

> <r_canvas_Average_Distance_From_Centroid>
0.0171735696494579

> <r_canvas_Cluster_Variance>
0.000294931494504783

> <i_canvas_Canvas_Cluster_Index>
2

> <i_canvas_Canvas_Cluster_Size>
2

> <s_m_subgroup_title>
conf_cluster_735_ligand1_representatives

> <s_m_subgroupid>
conf_cluster_735_ligand1_representatives

> <b_m_subgroup_collapsed>
0

$$$$
