SS_Et_DuPhos
                    3D
 Structure written by MMmdl.
 63 64  0  0  1  0            999 V2000
   -1.2291   -3.8341    1.2799 Cl  0  0  0  0  0  0
   -1.6456   -0.6477    0.1184 P   0  0  1  0  0  0
    1.4960   -0.1103    0.2736 P   0  0  2  0  0  0
   -1.0147    1.0601   -0.3327 C   0  0  0  0  0  0
    0.3826    1.2932   -0.2818 C   0  0  0  0  0  0
   -3.0239   -0.6355    1.3328 C   0  0  2  0  0  0
   -2.8268   -1.4393    2.0434 H   0  0  0  0  0  0
   -2.6105   -1.1124   -1.3704 C   0  0  2  0  0  0
   -3.0004   -0.2023   -1.8265 H   0  0  0  0  0  0
    2.4151    0.6495    1.6669 C   0  0  2  0  0  0
    2.4978    1.7207    1.4821 H   0  0  0  0  0  0
    2.9202   -0.4181   -0.8452 C   0  0  2  0  0  0
    3.0155   -1.5001   -0.9458 H   0  0  0  0  0  0
   -4.2512   -1.0436    0.4965 C   0  0  0  0  0  0
   -4.9629   -1.6130    1.0953 H   0  0  0  0  0  0
   -4.7749   -0.1471    0.1620 H   0  0  0  0  0  0
   -3.8063   -1.8393   -0.7477 C   0  0  0  0  0  0
   -4.6235   -1.9440   -1.4620 H   0  0  0  0  0  0
   -3.5152   -2.8472   -0.4490 H   0  0  0  0  0  0
    3.8151    0.0602    1.4700 C   0  0  0  0  0  0
    4.5628    0.6133    2.0392 H   0  0  0  0  0  0
    3.8400   -0.9691    1.8302 H   0  0  0  0  0  0
    4.1329    0.0835   -0.0392 C   0  0  0  0  0  0
    5.0240   -0.5037   -0.2639 H   0  0  0  0  0  0
    4.3582    1.1112   -0.3272 H   0  0  0  0  0  0
   -3.2089    0.6658    2.1363 C   0  0  0  0  0  0
   -3.4708    1.4872    1.4706 H   0  0  0  0  0  0
   -4.0630    0.5438    2.8033 H   0  0  0  0  0  0
   -1.8642   -1.8751   -2.4852 C   0  0  0  0  0  0
   -1.2804   -1.1559   -3.0588 H   0  0  0  0  0  0
   -2.5985   -2.2699   -3.1883 H   0  0  0  0  0  0
    1.8112    0.4947    3.0785 C   0  0  0  0  0  0
    1.0036    1.2182    3.1854 H   0  0  0  0  0  0
    2.5601    0.7947    3.8122 H   0  0  0  0  0  0
    2.8111    0.1768   -2.2621 C   0  0  0  0  0  0
    2.7769    1.2643   -2.2139 H   0  0  0  0  0  0
    3.7217   -0.0650   -2.8114 H   0  0  0  0  0  0
   -1.9885    1.0665    2.9750 C   0  0  0  0  0  0
   -2.2072    1.9466    3.5798 H   0  0  0  0  0  0
   -1.1348    1.3126    2.3467 H   0  0  0  0  0  0
   -1.6903    0.2647    3.6507 H   0  0  0  0  0  0
   -0.9308   -3.0111   -2.0522 C   0  0  0  0  0  0
   -1.4647   -3.7688   -1.4802 H   0  0  0  0  0  0
   -0.5084   -3.5077   -2.9259 H   0  0  0  0  0  0
   -0.0926   -2.6458   -1.4634 H   0  0  0  0  0  0
    1.2682   -0.8871    3.4599 C   0  0  0  0  0  0
    2.0385   -1.6530    3.3808 H   0  0  0  0  0  0
    0.4178   -1.1729    2.8454 H   0  0  0  0  0  0
    0.9227   -0.8857    4.4938 H   0  0  0  0  0  0
    1.6072   -0.3301   -3.0665 C   0  0  0  0  0  0
    1.6020   -1.4182   -3.1308 H   0  0  0  0  0  0
    0.6664   -0.0146   -2.6198 H   0  0  0  0  0  0
    1.6284    0.0628   -4.0830 H   0  0  0  0  0  0
   -1.8799    2.0973   -0.7374 C   0  0  0  0  0  0
   -2.9447    1.9260   -0.7856 H   0  0  0  0  0  0
   -1.3661    3.3616   -1.0805 C   0  0  0  0  0  0
   -2.0355    4.1516   -1.3878 H   0  0  0  0  0  0
    0.0200    3.5952   -1.0230 C   0  0  0  0  0  0
    0.4164    4.5652   -1.2850 H   0  0  0  0  0  0
    0.8899    2.5637   -0.6235 C   0  0  0  0  0  0
    1.9521    2.7518   -0.5808 H   0  0  0  0  0  0
    2.0762   -3.3503    1.1908 Cl  0  0  0  0  0  0
    0.1861   -2.0613    0.7402 Pd  0  0  0  0  0  0
  1 63  1  0  0  0
  2  4  1  0  0  0
  2  6  1  0  0  0
  2  8  1  0  0  0
  3  5  1  0  0  0
  3 10  1  0  0  0
  3 12  1  0  0  0
  4  5  1  0  0  0
  4 54  2  0  0  0
  5 60  2  0  0  0
  6  7  1  0  0  0
  6 26  1  0  0  0
  6 14  1  0  0  0
  8  9  1  0  0  0
  8 17  1  0  0  0
  8 29  1  0  0  0
 10 11  1  0  0  0
 10 32  1  0  0  0
 10 20  1  0  0  0
 12 13  1  0  0  0
 12 23  1  0  0  0
 12 35  1  0  0  0
 14 15  1  0  0  0
 14 16  1  0  0  0
 14 17  1  0  0  0
 17 19  1  0  0  0
 17 18  1  0  0  0
 20 21  1  0  0  0
 20 22  1  0  0  0
 20 23  1  0  0  0
 23 25  1  0  0  0
 23 24  1  0  0  0
 26 27  1  0  0  0
 26 38  1  0  0  0
 26 28  1  0  0  0
 29 31  1  0  0  0
 29 30  1  0  0  0
 29 42  1  0  0  0
 32 46  1  0  0  0
 32 33  1  0  0  0
 32 34  1  0  0  0
 35 36  1  0  0  0
 35 37  1  0  0  0
 35 50  1  0  0  0
 38 41  1  0  0  0
 38 40  1  0  0  0
 38 39  1  0  0  0
 42 43  1  0  0  0
 42 44  1  0  0  0
 42 45  1  0  0  0
 46 48  1  0  0  0
 46 49  1  0  0  0
 46 47  1  0  0  0
 50 51  1  0  0  0
 50 52  1  0  0  0
 50 53  1  0  0  0
 54 56  1  0  0  0
 54 55  1  0  0  0
 56 58  2  0  0  0
 56 57  1  0  0  0
 58 59  1  0  0  0
 58 60  1  0  0  0
 60 61  1  0  0  0
 62 63  1  0  0  0
M  END
> <s_m_entry_id>
389

> <s_m_entry_name>
SS_Et_DuPhos_6.1

> <program>
Gaussian 09, Revision D.01

> <chiral flag>
1

> <version>
0

> <s_m_Source_Path>
/home/sigmangrp/Documents/Schrodinger/conf_cluster_735

> <s_m_Source_File>
conf_cluster_735_ligand1_representatives.maegz

> <i_m_Source_File_Index>
4

> <r_mmod_Potential_Energy-OPLS-2005>
31.299768447876

> <b_mmod_Minimization_Converged-OPLS-2005>
1

> <r_mmod_RMS_Derivative-OPLS-2005>
0.000803413335233927

> <i_mmod_Times_Found-OPLS-2005>
85

> <r_mmod_Relative_Potential_Energy-OPLS-2005>
5.99579429626465

> <i_mmod_Conformation-OPLS-2005>
4

> <i_mmod_Serial_Number-OPLS-2005>
8

> <s_m_job_name>
mmod_csearch_2421

> <r_canvas_Distance_To_Centroid>
0

> <b_canvas_Is_Nearest_To_Centroid>
1

> <b_canvas_Is_Farthest_From_Centroid>
1

> <r_canvas_Max_Distance_From_Centroid>
0

> <r_canvas_Average_Distance_From_Centroid>
0

> <r_canvas_Cluster_Variance>
0

> <i_canvas_Canvas_Cluster_Index>
4

> <i_canvas_Canvas_Cluster_Size>
1

> <s_m_subgroup_title>
conf_cluster_735_ligand1_representatives

> <s_m_subgroupid>
conf_cluster_735_ligand1_representatives

> <b_m_subgroup_collapsed>
0

$$$$
