SS_Et_DuPhos
                    3D
 Structure written by MMmdl.
 63 64  0  0  1  0            999 V2000
   -1.2075   -3.8115    1.3904 Cl  0  0  0  0  0  0
   -1.6051   -0.6894    0.0413 P   0  0  1  0  0  0
    1.5357   -0.1288    0.2796 P   0  0  2  0  0  0
   -0.9775    1.0553   -0.3001 C   0  0  0  0  0  0
    0.4188    1.2923   -0.2099 C   0  0  0  0  0  0
   -3.1239   -0.7605    1.0461 C   0  0  2  0  0  0
   -3.3147   -1.8059    1.2930 H   0  0  0  0  0  0
   -2.3800   -1.1534   -1.5482 C   0  0  2  0  0  0
   -1.9353   -0.5845   -2.3660 H   0  0  0  0  0  0
    2.5889    0.5485    1.6151 C   0  0  2  0  0  0
    2.6654    1.6306    1.5090 H   0  0  0  0  0  0
    2.8550   -0.4528   -0.9587 C   0  0  2  0  0  0
    2.9203   -1.5345   -1.0858 H   0  0  0  0  0  0
   -4.2221   -0.3234    0.0721 C   0  0  0  0  0  0
   -5.1796   -0.7565    0.3640 H   0  0  0  0  0  0
   -4.3656    0.7537    0.1348 H   0  0  0  0  0  0
   -3.8626   -0.7318   -1.3794 C   0  0  0  0  0  0
   -4.0851    0.0989   -2.0501 H   0  0  0  0  0  0
   -4.5216   -1.5409   -1.6969 H   0  0  0  0  0  0
    3.9581   -0.0466    1.2761 C   0  0  0  0  0  0
    4.7592    0.4833    1.7924 H   0  0  0  0  0  0
    4.0044   -1.0855    1.6047 H   0  0  0  0  0  0
    4.1403    0.0163   -0.2525 C   0  0  0  0  0  0
    5.0017   -0.5711   -0.5722 H   0  0  0  0  0  0
    4.3490    1.0502   -0.5310 H   0  0  0  0  0  0
   -3.0297    0.0356    2.3552 C   0  0  0  0  0  0
   -2.6397    1.0341    2.1529 H   0  0  0  0  0  0
   -4.0284    0.1765    2.7699 H   0  0  0  0  0  0
   -2.2357   -2.6593   -1.8404 C   0  0  0  0  0  0
   -2.8570   -2.9201   -2.6981 H   0  0  0  0  0  0
   -2.6339   -3.2327   -1.0030 H   0  0  0  0  0  0
    2.0617    0.2396    3.0234 C   0  0  0  0  0  0
    2.8500    0.4212    3.7548 H   0  0  0  0  0  0
    1.8117   -0.8182    3.1049 H   0  0  0  0  0  0
    2.6409    0.1851   -2.3445 C   0  0  0  0  0  0
    2.5608    1.2674   -2.2514 H   0  0  0  0  0  0
    3.5274    0.0078   -2.9544 H   0  0  0  0  0  0
   -2.1545   -0.6645    3.4041 C   0  0  0  0  0  0
   -2.0321   -0.0411    4.2899 H   0  0  0  0  0  0
   -1.1642   -0.8983    3.0162 H   0  0  0  0  0  0
   -2.6053   -1.6052    3.7222 H   0  0  0  0  0  0
   -0.8004   -3.1128   -2.1383 C   0  0  0  0  0  0
   -0.1042   -2.8471   -1.3461 H   0  0  0  0  0  0
   -0.7574   -4.1952   -2.2624 H   0  0  0  0  0  0
   -0.4415   -2.6649   -3.0641 H   0  0  0  0  0  0
    0.8412    1.0929    3.3923 C   0  0  0  0  0  0
    0.0468    1.0033    2.6525 H   0  0  0  0  0  0
    1.1069    2.1487    3.4492 H   0  0  0  0  0  0
    0.4371    0.8012    4.3616 H   0  0  0  0  0  0
    1.4183   -0.3504   -3.0990 C   0  0  0  0  0  0
    1.5171   -1.4195   -3.2836 H   0  0  0  0  0  0
    0.4942   -0.1855   -2.5475 H   0  0  0  0  0  0
    1.3135    0.1433   -4.0652 H   0  0  0  0  0  0
   -1.8282    2.1162   -0.6769 C   0  0  0  0  0  0
   -2.8873    1.9612   -0.7830 H   0  0  0  0  0  0
   -1.3091    3.3979   -0.9380 C   0  0  0  0  0  0
   -1.9722    4.2010   -1.2242 H   0  0  0  0  0  0
    0.0730    3.6311   -0.8320 C   0  0  0  0  0  0
    0.4742    4.6136   -1.0333 H   0  0  0  0  0  0
    0.9329    2.5792   -0.4702 C   0  0  0  0  0  0
    1.9944    2.7628   -0.3998 H   0  0  0  0  0  0
    2.0770   -3.2492    1.5271 Cl  0  0  0  0  0  0
    0.2066   -2.0432    0.8366 Pd  0  0  0  0  0  0
  1 63  1  0  0  0
  2  4  1  0  0  0
  2  6  1  0  0  0
  2  8  1  0  0  0
  3  5  1  0  0  0
  3 10  1  0  0  0
  3 12  1  0  0  0
  4  5  1  0  0  0
  4 54  2  0  0  0
  5 60  2  0  0  0
  6  7  1  0  0  0
  6 26  1  0  0  0
  6 14  1  0  0  0
  8  9  1  0  0  0
  8 17  1  0  0  0
  8 29  1  0  0  0
 10 11  1  0  0  0
 10 32  1  0  0  0
 10 20  1  0  0  0
 12 13  1  0  0  0
 12 23  1  0  0  0
 12 35  1  0  0  0
 14 15  1  0  0  0
 14 16  1  0  0  0
 14 17  1  0  0  0
 17 19  1  0  0  0
 17 18  1  0  0  0
 20 21  1  0  0  0
 20 22  1  0  0  0
 20 23  1  0  0  0
 23 25  1  0  0  0
 23 24  1  0  0  0
 26 27  1  0  0  0
 26 38  1  0  0  0
 26 28  1  0  0  0
 29 31  1  0  0  0
 29 30  1  0  0  0
 29 42  1  0  0  0
 32 46  1  0  0  0
 32 33  1  0  0  0
 32 34  1  0  0  0
 35 36  1  0  0  0
 35 37  1  0  0  0
 35 50  1  0  0  0
 38 41  1  0  0  0
 38 40  1  0  0  0
 38 39  1  0  0  0
 42 43  1  0  0  0
 42 44  1  0  0  0
 42 45  1  0  0  0
 46 48  1  0  0  0
 46 49  1  0  0  0
 46 47  1  0  0  0
 50 51  1  0  0  0
 50 52  1  0  0  0
 50 53  1  0  0  0
 54 56  1  0  0  0
 54 55  1  0  0  0
 56 58  2  0  0  0
 56 57  1  0  0  0
 58 59  1  0  0  0
 58 60  1  0  0  0
 60 61  1  0  0  0
 62 63  1  0  0  0
M  END
> <s_m_entry_id>
390

> <s_m_entry_name>
SS_Et_DuPhos_6.1

> <program>
Gaussian 09, Revision D.01

> <chiral flag>
1

> <version>
0

> <s_m_Source_Path>
/home/sigmangrp/Documents/Schrodinger/conf_cluster_735

> <s_m_Source_File>
conf_cluster_735_ligand1_representatives.maegz

> <i_m_Source_File_Index>
5

> <r_mmod_Potential_Energy-OPLS-2005>
32.5806999206543

> <b_mmod_Minimization_Converged-OPLS-2005>
1

> <r_mmod_RMS_Derivative-OPLS-2005>
0.000908378628082573

> <i_mmod_Times_Found-OPLS-2005>
103

> <r_mmod_Relative_Potential_Energy-OPLS-2005>
7.27672576904297

> <i_mmod_Conformation-OPLS-2005>
5

> <i_mmod_Serial_Number-OPLS-2005>
8

> <s_m_job_name>
mmod_csearch_2421

> <r_canvas_Distance_To_Centroid>
0

> <b_canvas_Is_Nearest_To_Centroid>
1

> <b_canvas_Is_Farthest_From_Centroid>
1

> <r_canvas_Max_Distance_From_Centroid>
0

> <r_canvas_Average_Distance_From_Centroid>
0

> <r_canvas_Cluster_Variance>
0

> <i_canvas_Canvas_Cluster_Index>
5

> <i_canvas_Canvas_Cluster_Size>
1

> <s_m_subgroup_title>
conf_cluster_735_ligand1_representatives

> <s_m_subgroupid>
conf_cluster_735_ligand1_representatives

> <b_m_subgroup_collapsed>
0

$$$$
