%nprocs=14
%mem=128GB
%chk=SS_Et_DuPhos_1.chk
# PBEPBE gen 6D pseudo=read scf=maxcycles=500 denfit int=(grid=ultrafine) empiricaldispersion=GD3BJ opt freq=noraman

 SS_Et_DuPhos

0 1
Cl    -1.07620    -3.97250    1.14700
P    -1.58020    -0.74860    0.08700
P    1.56170    -0.14120    0.32880
C    -0.96300    0.98330    -0.32380
C    0.42160    1.25500    -0.17910
C    -3.00460    -0.80150    1.23880
H    -3.16910    -1.85260    1.48110
C    -2.50630    -1.20000    -1.43300
H    -2.20680    -0.53960    -2.24830
C    2.49150    0.50000    1.77440
H    2.26120    1.55940    1.89290
C    2.95300    -0.27990    -0.86220
H    3.25000    -1.32920    -0.89640
C    -4.17480    -0.36600    0.35180
H    -5.12500    -0.69360    0.77520
H    -4.22980    0.71980    0.31600
C    -3.99060    -0.92830    -1.07630
H    -4.44080    -0.25410    -1.80580
H    -4.55970    -1.85610    -1.14860
C    3.96030    0.35620    1.34390
H    4.59660    1.07060    1.86720
H    4.32230    -0.63760    1.61220
C    4.07680    0.51470    -0.18180
H    5.05630    0.19350    -0.53780
H    3.98580    1.57160    -0.43350
C    -2.88310    -0.05280    2.58500
H    -3.84620    -0.11000    3.09340
H    -2.19290    -0.59860    3.22750
C    -2.29090    -2.66260    -1.86970
H    -2.96120    -2.88620    -2.70060
H    -2.59390    -3.33110    -1.06440
C    2.17580    -0.22330    3.09670
H    2.76550    0.22880    3.89500
H    2.50340    -1.26090    3.04080
C    2.65240    0.18460    -2.30030
H    2.43470    1.25210    -2.31420
H    3.55250    0.06060    -2.90330
C    -2.44660    1.41860    2.53850
H    -3.08660    2.01220    1.88670
H    -1.42000    1.52840    2.19550
H    -2.49460    1.86210    3.53300
C    -0.86200    -3.00440    -2.30670
H    -0.59450    -2.45310    -3.20750
H    -0.77520    -4.06640    -2.53800
H    -0.12630    -2.77770    -1.53820
C    0.69750    -0.19310    3.49570
H    0.07330    -0.69180    2.75740
H    0.34390    0.83220    3.60260
H    0.54240    -0.69730    4.44980
C    1.50130    -0.56500    -2.97770
H    1.37210    -0.22740    -4.00600
H    1.69630    -1.63700    -3.00210
H    0.55610    -0.39950    -2.46210
C    -1.81970    2.00690    -0.78190
H    -2.86820    1.81460    -0.93600
C    -1.32170    3.29620    -1.04570
H    -1.98910    4.07330    -1.38830
C    0.04430    3.57260    -0.86060
H    0.42870    4.56230    -1.05920
C    0.91210    2.55250    -0.43150
H    1.96270    2.76630    -0.30940
Cl    2.20050    -3.35760    1.20850
Pd    0.28300    -2.13160    0.70530

H Cl C P 0
6-31G(d)
****
Pd 0
LANL2DZ
****

Pd 0
LANL2DZ

