%nprocs=28
%mem=128GB
%chk=SS_Et_DuPhos_5_SPE.chk
# PBE1PBE gen pseudo=read int=(grid=ultrafine) empiricaldispersion=GD3BJ nmr=giao 

SS_Et_DuPhos_5 title 

0 1
Cl    -1.4042922321    -3.7649765128    1.1369715847
P    -1.6017437191    -0.7752098351    -0.0293232936
P    1.4769216861    -0.1960053367    0.3445024174
C    -0.9757838704    0.9265252768    -0.4277196862
C    0.4020928137    1.189915955    -0.2267037401
C    -3.0499757874    -0.6333461061    1.1446358809
H    -3.1458220544    -1.691557264    1.4654507917
C    -2.6641139806    -1.2748288009    -1.5144170352
H    -2.4826857104    -0.4875009528    -2.2714351486
C    2.5390409642    0.4777425412    1.7418911959
H    2.5762400278    1.5736766533    1.5655954173
C    2.9249232335    -0.4342131388    -0.852246081
H    2.9810916549    -1.536184361    -0.9283729506
C    -4.2463178372    -0.305935948    0.2361308766
H    -5.1921558741    -0.490047718    0.7774562496
H    -4.2479245057    0.7656128523    -0.037134776
C    -4.1313855702    -1.2102680849    -1.0026583964
H    -4.8065906185    -0.8909690021    -1.81562562
H    -4.4295898144    -2.234957149    -0.7153199615
C    3.9282980525    -0.106480593    1.4258998618
H    4.6992136654    0.4046958139    2.0301478231
H    3.9383552212    -1.1794801973    1.6862740096
C    4.1625770929    0.0802744686    -0.0784042723
H    5.0685940085    -0.4468729014    -0.4253789693
H    4.305884831    1.1564740968    -0.3030267926
C    -2.846306015    0.2419389711    2.388484304
H    -2.3306949495    1.1839105425    2.1176426865
H    -3.8440183053    0.5414015492    2.763147198
C    -2.3303284573    -2.6512146276    -2.1157092759
H    -3.1154485953    -2.8724237723    -2.8653363523
H    -2.4177499596    -3.4098111371    -1.3175776777
C    2.0052606375    0.2198901391    3.1555171779
H    2.8526558826    0.3053439999    3.8622543649
H    1.6472675514    -0.8236582656    3.2225907008
C    2.7851106188    0.1790808389    -2.2516608292
H    2.6605981427    1.2751994039    -2.1667989261
H    3.75313033    0.0251174559    -2.7670824033
C    -2.0871097819    -0.5025387224    3.4941072561
H    -1.9046889423    0.1475551303    4.3657991323
H    -1.114748388    -0.8774144119    3.1283223904
H    -2.660204832    -1.3830307351    3.8311098841
C    -0.9494391991    -2.7536920577    -2.7597556172
H    -0.1590441419    -2.6101691372    -1.9998345344
H    -0.8004392847    -3.7525324051    -3.2028101345
H    -0.8088242135    -2.0005856413    -3.5558988738
C    0.9090492403    1.2138298079    3.5519793905
H    0.0614577468    1.1813380125    2.8457698249
H    1.2977669171    2.248457353    3.556011435
H    0.5125993886    0.9954383587    4.5570877461
C    1.6557396109    -0.4078543677    -3.0991086395
H    1.7523343933    -1.502770348    -3.1895594775
H    0.6692033904    -0.1971589504    -2.6527058104
H    1.6609293557    0.0213096943    -4.1155246175
C    -1.8014221113    1.9539539163    -0.9257971664
H    -2.861281402    1.7639410222    -1.1151508772
C    -1.2791827933    3.2264159088    -1.1921978833
H    -1.9364007323    4.0138327772    -1.5744243005
C    0.0793282156    3.4898031489    -0.9692127274
H    0.4891249251    4.4837922034    -1.1742643181
C    0.9160828331    2.4734983356    -0.4922673813
H    1.978890296    2.6812044185    -0.328109432
Cl    2.1051380785    -3.1830899304    1.3930754071
Pd    0.1519128728    -1.9898922343    0.6958989717

Cl P H C 0
def2TZVP
****
Pd 0
SDD
****

Pd 0
SDD

--Link1--
%nprocs=28
%mem=128GB
%chk=SS_Et_DuPhos_5_SPE.chk
# PBE1PBE gen pseudo=read int=(grid=ultrafine) empiricaldispersion=GD3BJ pop=nbo guess=read geom=check

SS_Et_DuPhos_5 title 

0 1

Cl P H C 0
def2TZVP
****
Pd 0
SDD
****

Pd 0
SDD

