%nprocs=28
%mem=128GB
%chk=SS_Et_DuPhos_3_SPE_NoPd.chk
# PBE1PBE/def2TZVP int=(grid=ultrafine) empiricaldispersion=GD3BJ nmr=giao 

SS_Et_DuPhos_3 title 

0 1
P    -1.5751079331    -0.7157086244    0.0459657721
P    1.4776320387    -0.1157613401    0.3296681112
C    -0.9904448717    0.9865353427    -0.3871924556
C    0.3921754148    1.2558015224    -0.2552395568
C    -2.9321624903    -0.671933762    1.3582606985
H    -2.5462188031    -1.3299857797    2.1564970337
C    -2.6920284079    -1.1751426587    -1.4089135052
H    -2.4607565115    -0.4503980471    -2.2118764556
C    2.4030721367    0.6048213147    1.798790321
H    2.4141879704    1.6921078975    1.5742132683
C    3.0090300838    -0.2874081043    -0.7532993995
H    3.1287109184    -1.3879142149    -0.7716249114
C    -4.1145690914    -1.3653670088    0.6396549159
H    -3.9730784782    -2.4575659908    0.7130249301
H    -5.0687091965    -1.1125693371    1.1361289152
C    -4.1132002906    -0.9450378926    -0.8394881769
H    -4.3920588549    0.1227392226    -0.9242401269
H    -4.8544074807    -1.5168563327    -1.4262339439
C    3.8341379945    0.0781471404    1.5780239769
H    4.5430808189    0.6017333707    2.2443972481
H    3.8780236905    -1.001843342    1.8051421352
C    4.1576816039    0.3098599102    0.0922225361
H    5.117428176    -0.1524271153    -0.1984303104
H    4.2440839973    1.3969949797    -0.1080334521
C    -3.2612008401    0.7060022531    1.9560677863
H    -3.5497218739    1.4239732881    1.1661823678
H    -4.1621096269    0.5714129542    2.5851727294
C    -2.4685897079    -2.5989635715    -1.951564789
H    -3.2828707461    -2.7943035139    -2.6764618443
H    -2.5719139261    -3.3320484419    -1.1330068233
C    1.7843191805    0.4379192131    3.1968773978
H    0.8164626097    0.9729347389    3.2156530434
H    2.4437127609    0.9900435204    3.8954896859
C    2.8987936634    0.2362047061    -2.1891674242
H    2.7275244069    1.3293449782    -2.1856736668
H    3.8855596326    0.0849624689    -2.6680921225
C    -2.1327377409    1.2932761004    2.8104414462
H    -2.4545389434    2.2235168376    3.3083235344
H    -1.2466456631    1.5332687172    2.198809709
H    -1.8191268624    0.5778794695    3.590930572
C    -1.1119724326    -2.7928178085    -2.6315526338
H    -0.288356278    -2.6784421532    -1.9016275618
H    -1.0307547469    -3.807031903    -3.0563908033
H    -0.9560531178    -2.0630494754    -3.44749584
C    1.5861462508    -0.9929265369    3.7050387526
H    2.5165982536    -1.5819899321    3.6686703709
H    0.8421635009    -1.5409489684    3.1002667215
H    1.2309661271    -0.9737899466    4.7498355267
C    1.8134429651    -0.4599549982    -3.0168798891
H    1.9461585172    -1.55524498    -3.006271042
H    0.8068391456    -0.2467832836    -2.6171446015
H    1.8350151887    -0.1199599424    -4.0661166655
C    -1.8481872464    1.9940465483    -0.8691669285
H    -2.9154236481    1.7896690808    -1.0017065959
C    -1.3443121235    3.2611528419    -1.1899542612
H    -2.0204603579    4.0367898864    -1.5631325338
C    0.0220479452    3.5353997872    -1.0324051894
H    0.4157689875    4.52631819    -1.2794110806
C    0.8870461258    2.5362041382    -0.5685394496
H    1.9544282325    2.7537122463    -0.4543884927

--Link1--
%nprocs=28
%mem=128GB
%chk=SS_Et_DuPhos_3_SPE_NoPd.chk
# PBE1PBE/def2TZVP int=(grid=ultrafine) empiricaldispersion=GD3BJ pop=nbo guess=read geom=check

SS_Et_DuPhos_3 title 

0 1

