SS_Et_DuPhos
                    3D
 Structure written by MMmdl.
 63 64  0  0  1  0            999 V2000
   -1.0762   -3.9725    1.1470 Cl  0  0  0  0  0  0
   -1.5802   -0.7486    0.0870 P   0  0  1  0  0  0
    1.5617   -0.1412    0.3288 P   0  0  2  0  0  0
   -0.9630    0.9833   -0.3238 C   0  0  0  0  0  0
    0.4216    1.2550   -0.1791 C   0  0  0  0  0  0
   -3.0046   -0.8015    1.2388 C   0  0  2  0  0  0
   -3.1691   -1.8526    1.4811 H   0  0  0  0  0  0
   -2.5063   -1.2000   -1.4330 C   0  0  2  0  0  0
   -2.2068   -0.5396   -2.2483 H   0  0  0  0  0  0
    2.4915    0.5000    1.7744 C   0  0  2  0  0  0
    2.2612    1.5594    1.8929 H   0  0  0  0  0  0
    2.9530   -0.2799   -0.8622 C   0  0  2  0  0  0
    3.2500   -1.3292   -0.8964 H   0  0  0  0  0  0
   -4.1748   -0.3660    0.3518 C   0  0  0  0  0  0
   -5.1250   -0.6936    0.7752 H   0  0  0  0  0  0
   -4.2298    0.7198    0.3160 H   0  0  0  0  0  0
   -3.9906   -0.9283   -1.0763 C   0  0  0  0  0  0
   -4.4408   -0.2541   -1.8058 H   0  0  0  0  0  0
   -4.5597   -1.8561   -1.1486 H   0  0  0  0  0  0
    3.9603    0.3562    1.3439 C   0  0  0  0  0  0
    4.5966    1.0706    1.8672 H   0  0  0  0  0  0
    4.3223   -0.6376    1.6122 H   0  0  0  0  0  0
    4.0768    0.5147   -0.1818 C   0  0  0  0  0  0
    5.0563    0.1935   -0.5378 H   0  0  0  0  0  0
    3.9858    1.5716   -0.4335 H   0  0  0  0  0  0
   -2.8831   -0.0528    2.5850 C   0  0  0  0  0  0
   -3.8462   -0.1100    3.0934 H   0  0  0  0  0  0
   -2.1929   -0.5986    3.2275 H   0  0  0  0  0  0
   -2.2909   -2.6626   -1.8697 C   0  0  0  0  0  0
   -2.9612   -2.8862   -2.7006 H   0  0  0  0  0  0
   -2.5939   -3.3311   -1.0644 H   0  0  0  0  0  0
    2.1758   -0.2233    3.0967 C   0  0  0  0  0  0
    2.7655    0.2288    3.8950 H   0  0  0  0  0  0
    2.5034   -1.2609    3.0408 H   0  0  0  0  0  0
    2.6524    0.1846   -2.3003 C   0  0  0  0  0  0
    2.4347    1.2521   -2.3142 H   0  0  0  0  0  0
    3.5525    0.0606   -2.9033 H   0  0  0  0  0  0
   -2.4466    1.4186    2.5385 C   0  0  0  0  0  0
   -3.0866    2.0122    1.8867 H   0  0  0  0  0  0
   -1.4200    1.5284    2.1955 H   0  0  0  0  0  0
   -2.4946    1.8621    3.5330 H   0  0  0  0  0  0
   -0.8620   -3.0044   -2.3067 C   0  0  0  0  0  0
   -0.5945   -2.4531   -3.2075 H   0  0  0  0  0  0
   -0.7752   -4.0664   -2.5380 H   0  0  0  0  0  0
   -0.1263   -2.7777   -1.5382 H   0  0  0  0  0  0
    0.6975   -0.1931    3.4957 C   0  0  0  0  0  0
    0.0733   -0.6918    2.7574 H   0  0  0  0  0  0
    0.3439    0.8322    3.6026 H   0  0  0  0  0  0
    0.5424   -0.6973    4.4498 H   0  0  0  0  0  0
    1.5013   -0.5650   -2.9777 C   0  0  0  0  0  0
    1.3721   -0.2274   -4.0060 H   0  0  0  0  0  0
    1.6963   -1.6370   -3.0021 H   0  0  0  0  0  0
    0.5561   -0.3995   -2.4621 H   0  0  0  0  0  0
   -1.8197    2.0069   -0.7819 C   0  0  0  0  0  0
   -2.8682    1.8146   -0.9360 H   0  0  0  0  0  0
   -1.3217    3.2962   -1.0457 C   0  0  0  0  0  0
   -1.9891    4.0733   -1.3883 H   0  0  0  0  0  0
    0.0443    3.5726   -0.8606 C   0  0  0  0  0  0
    0.4287    4.5623   -1.0592 H   0  0  0  0  0  0
    0.9121    2.5525   -0.4315 C   0  0  0  0  0  0
    1.9627    2.7663   -0.3094 H   0  0  0  0  0  0
    2.2005   -3.3576    1.2085 Cl  0  0  0  0  0  0
    0.2830   -2.1316    0.7053 Pd  0  0  0  0  0  0
  1 63  1  0  0  0
  2  4  1  0  0  0
  2  6  1  0  0  0
  2  8  1  0  0  0
  3  5  1  0  0  0
  3 10  1  0  0  0
  3 12  1  0  0  0
  4  5  1  0  0  0
  4 54  2  0  0  0
  5 60  2  0  0  0
  6  7  1  0  0  0
  6 26  1  0  0  0
  6 14  1  0  0  0
  8  9  1  0  0  0
  8 17  1  0  0  0
  8 29  1  0  0  0
 10 11  1  0  0  0
 10 32  1  0  0  0
 10 20  1  0  0  0
 12 13  1  0  0  0
 12 23  1  0  0  0
 12 35  1  0  0  0
 14 15  1  0  0  0
 14 16  1  0  0  0
 14 17  1  0  0  0
 17 19  1  0  0  0
 17 18  1  0  0  0
 20 21  1  0  0  0
 20 22  1  0  0  0
 20 23  1  0  0  0
 23 25  1  0  0  0
 23 24  1  0  0  0
 26 27  1  0  0  0
 26 38  1  0  0  0
 26 28  1  0  0  0
 29 31  1  0  0  0
 29 30  1  0  0  0
 29 42  1  0  0  0
 32 46  1  0  0  0
 32 33  1  0  0  0
 32 34  1  0  0  0
 35 36  1  0  0  0
 35 37  1  0  0  0
 35 50  1  0  0  0
 38 41  1  0  0  0
 38 40  1  0  0  0
 38 39  1  0  0  0
 42 43  1  0  0  0
 42 44  1  0  0  0
 42 45  1  0  0  0
 46 48  1  0  0  0
 46 49  1  0  0  0
 46 47  1  0  0  0
 50 51  1  0  0  0
 50 52  1  0  0  0
 50 53  1  0  0  0
 54 56  1  0  0  0
 54 55  1  0  0  0
 56 58  2  0  0  0
 56 57  1  0  0  0
 58 59  1  0  0  0
 58 60  1  0  0  0
 60 61  1  0  0  0
 62 63  1  0  0  0
M  END
> <s_m_entry_id>
386

> <s_m_entry_name>
SS_Et_DuPhos_6.1

> <program>
Gaussian 09, Revision D.01

> <chiral flag>
1

> <version>
0

> <s_m_Source_Path>
/home/sigmangrp/Documents/Schrodinger/conf_cluster_735

> <s_m_Source_File>
conf_cluster_735_ligand1_representatives.maegz

> <i_m_Source_File_Index>
1

> <r_mmod_Potential_Energy-OPLS-2005>
29.7325019836426

> <b_mmod_Minimization_Converged-OPLS-2005>
1

> <r_mmod_RMS_Derivative-OPLS-2005>
0.000909547612536699

> <i_mmod_Times_Found-OPLS-2005>
87

> <r_mmod_Relative_Potential_Energy-OPLS-2005>
4.42852783203125

> <i_mmod_Conformation-OPLS-2005>
3

> <i_mmod_Serial_Number-OPLS-2005>
8

> <s_m_job_name>
mmod_csearch_2421

> <r_canvas_Distance_To_Centroid>
0

> <b_canvas_Is_Nearest_To_Centroid>
1

> <b_canvas_Is_Farthest_From_Centroid>
1

> <r_canvas_Max_Distance_From_Centroid>
0

> <r_canvas_Average_Distance_From_Centroid>
0

> <r_canvas_Cluster_Variance>
0

> <i_canvas_Canvas_Cluster_Index>
1

> <i_canvas_Canvas_Cluster_Size>
1

> <s_m_subgroup_title>
conf_cluster_735_ligand1_representatives

> <s_m_subgroupid>
conf_cluster_735_ligand1_representatives

> <b_m_subgroup_collapsed>
0

$$$$
