%nprocs=14
%mem=128GB
%chk=RR_Me_Ferrolane_1.chk
# PBEPBE gen 6D pseudo=read scf=maxcycles=500 denfit int=(grid=ultrafine) empiricaldispersion=GD3BJ opt freq=noraman

 RR_Me_Ferrolane

0 1
Fe    -0.04020    2.63580    0.03900
P    -1.80870    -0.29900    0.04200
P    1.80100    -0.26080    0.02050
C    -1.54250    1.45390    -0.59070
C    -0.70810    1.80830    -1.70170
C    -0.69190    3.23170    -1.83700
C    -1.53980    3.77660    -0.82430
C    -2.07630    2.68510    -0.06740
C    1.48960    1.48110    0.65990
C    1.99720    2.72810    0.14770
C    1.43440    3.80170    0.91130
C    0.59870    3.23050    1.91970
C    0.64590    1.80900    1.77230
C    -3.31880    -0.80980    -0.86030
C    -4.42280    -0.12960    -0.04630
C    -2.57680    -0.08580    1.69170
C    -4.08710    -0.28260    1.44870
C    3.31940    -0.74230    0.92480
C    4.41060    -0.03660    0.11510
C    2.56770    -0.02040    -1.62600
C    4.08070    -0.19120    -1.38110
H    -0.13910    1.11720    -2.30420
H    -0.10970    3.79560    -2.55170
H    -1.71420    4.82650    -0.63680
H    -2.73180    2.78240    0.78530
H    2.65160    2.84670    -0.70330
H    0.09500    1.10070    2.37160
Cl    -1.56810    -3.62710    0.03870
Cl    1.63280    -3.59200    -0.00490
Pd    0.01370    -1.90550    0.02400
H    -3.44840    -1.88820    -0.78300
C    -3.28880    -0.42930    -2.34640
H    -2.39980    0.92260    2.06240
C    -1.98420    -1.08790    2.69020
H    -5.40340    -0.54610    -0.27880
H    -4.46340    0.93100    -0.29940
H    -4.67700    0.40550    2.05490
H    -4.37800    -1.28760    1.75800
H    1.58620    4.85660    0.73250
H    0.00420    3.77570    2.63870
H    -2.41160    -0.84720    -2.84000
H    -3.27160    0.65120    -2.49170
H    -4.17120    -0.81020    -2.86030
H    -0.90540    -0.96740    2.78740
H    -2.17600    -2.11740    2.38800
H    -2.42040    -0.95240    3.68030
H    3.47140    -1.81770    0.84480
C    3.27820    -0.36650    2.41180
H    2.37280    0.98760    -1.98890
C    1.99560    -1.02470    -2.63420
H    5.39920    -0.43370    0.34790
H    4.42860    1.02370    0.37190
H    4.65940    0.50920    -1.98420
H    4.38990    -1.19000    -1.69270
H    3.23740    0.71300    2.55960
H    4.16740    -0.72970    2.92660
H    2.40910    -0.80440    2.90240
H    2.20600    -2.05300    -2.34060
H    2.43080    -0.87240    -3.62220
H    0.91480    -0.92330    -2.73220

H Cl C P 0
6-31G(d)
****
Fe Pd 0
LANL2DZ
****

Fe Pd 0
LANL2DZ

