%nprocs=28
%mem=128GB
%chk=RR_Me_Ferrolane_2_SPE.chk
# PBE1PBE gen pseudo=read int=(grid=ultrafine) empiricaldispersion=GD3BJ nmr=giao 

RR_Me_Ferrolane_2 title 

0 1
Fe    -0.0336217657    2.6122326121    0.1065494476
P    -1.8111456149    -0.2628644246    0.0665822269
P    1.7665603782    -0.2279128791    0.0963948527
C    -1.547272802    1.448511135    -0.5036245111
C    -0.6905624137    1.782921255    -1.6210442581
C    -0.6581518804    3.2094857689    -1.7599856346
C    -1.5028539013    3.7740406908    -0.7472464773
C    -2.0602903492    2.6980286104    0.0223409721
C    1.4844135294    1.4602954182    0.7163647795
C    1.9895232713    2.712910578    0.1901793069
C    1.4267260838    3.7841950459    0.9621340144
C    0.58509239    3.2123964677    1.9735379022
C    0.6271656462    1.785774096    1.8344482184
C    -3.2807584792    -0.7832647003    -0.9872851727
C    -4.4783499373    -0.2535243593    -0.1755038561
C    -2.7851770992    -0.1039415394    1.6749687746
C    -4.2090321802    -0.5862981746    1.2997201763
C    3.356364605    -0.7808391119    0.9685570738
C    4.3230390432    -1.0472054951    -0.2092155573
C    2.5467731013    0.0262521548    -1.5990759155
C    4.0651808887    0.0009222616    -1.3064391991
H    -0.1316081297    1.0612024321    -2.2173711367
H    -0.0563644937    3.7673966536    -2.4781942236
H    -1.6543678537    4.8371775131    -0.5564891398
H    -2.7146366534    2.8138645317    0.8860234083
H    2.6460655109    2.8278870448    -0.6725129469
H    0.0637000019    1.0613227188    2.4229330594
Cl    -1.7000999632    -3.3886224946    0.337492755
Cl    1.6570064511    -3.411446714    0.1154119276
Pd    -0.0109154553    -1.6957894069    0.1449512044
H    -3.2629095385    -1.8853393188    -0.9287272235
C    -3.2276768126    -0.338348426    -2.4472260403
H    -2.8094062124    0.9760708358    1.9070598925
C    -2.1825259079    -0.8639771225    2.8606892133
H    -5.4180489106    -0.7114846791    -0.5341571314
H    -4.5750664255    0.8414416085    -0.3168768025
H    -4.9582834958    -0.1369694715    1.9756255683
H    -4.2489312222    -1.6820856815    1.4366656963
H    1.5705812896    4.8487230029    0.7730729273
H    -0.0217870872    3.7653024548    2.6912589619
H    -2.3374829815    -0.7418391739    -2.9597094991
H    -3.2151396276    0.7608660887    -2.543777919
H    -4.1171516961    -0.7161497073    -2.9817250245
H    -1.1872583711    -0.479596584    3.1411653712
H    -2.0712247291    -1.9331339526    2.6175886907
H    -2.8436742163    -0.7642520068    3.7404841482
H    3.1106370033    -1.7263726969    1.4756529188
C    3.8909617078    0.2433850877    1.9764325207
H    2.2271786864    1.0192151181    -1.9605020691
C    2.0966145749    -1.0473819125    -2.600169162
H    4.1249901882    -2.0587707051    -0.6027285562
H    5.3711706357    -1.0194635203    0.1400579257
H    4.3971856072    0.9972121603    -0.9578530836
H    4.6314870162    -0.2252904921    -2.2280483826
H    4.1605175319    1.2018984513    1.5002910602
H    4.7988313352    -0.1643364919    2.4555119514
H    3.1589273344    0.4619496172    2.7715553225
H    2.3348931608    -2.0618781688    -2.2418289922
H    2.5920055962    -0.8820983517    -3.573760339
H    1.003583638    -1.0185036506    -2.7532240156

P Cl H C 0
def2TZVP
****
Pd Fe 0
SDD
****

Pd Fe 0
SDD

--Link1--
%nprocs=28
%mem=128GB
%chk=RR_Me_Ferrolane_2_SPE.chk
# PBE1PBE gen pseudo=read int=(grid=ultrafine) empiricaldispersion=GD3BJ pop=nbo guess=read geom=check

RR_Me_Ferrolane_2 title 

0 1

P Cl H C 0
def2TZVP
****
Pd Fe 0
SDD
****

Pd Fe 0
SDD

