%nprocs=14
%mem=128GB
%chk=RR_Me_Ferrolane_3.chk
# PBEPBE gen 6D pseudo=read scf=maxcycles=500 denfit int=(grid=ultrafine) empiricaldispersion=GD3BJ opt freq=noraman

 RR_Me_Ferrolane

0 1
Fe    -0.00880    2.65130    -0.00160
P    -1.80670    -0.26960    -0.03610
P    1.81070    -0.25710    0.02950
C    -1.50590    1.47970    -0.66440
C    -0.64370    1.82580    -1.75610
C    -0.61420    3.24900    -1.89260
C    -1.48040    3.80170    -0.89950
C    -2.04130    2.71530    -0.15290
C    1.49870    1.48780    0.65580
C    2.02610    2.73000    0.15250
C    1.45380    3.80870    0.90170
C    0.59170    3.24500    1.89200
C    0.63290    1.82300    1.74820
C    -3.30850    -0.84880    -0.93610
C    -4.31390    -1.11580    0.19390
C    -2.55590    -0.01410    1.61610
C    -4.06350    -0.13900    1.35540
C    3.30230    -0.74890    0.97230
C    4.41870    -0.05250    0.18920
C    2.62020    -0.02780    -1.59800
C    4.12550    -0.20750    -1.31460
H    -0.06650    1.12970    -2.34500
H    -0.01210    3.80760    -2.59470
H    -1.65110    4.85310    -0.71730
H    -2.71450    2.81750    0.68540
H    2.70010    2.84250    -0.68380
H    0.06600    1.11800    2.33670
Cl    -1.58540    -3.59620    -0.03290
Cl    1.61390    -3.58510    0.01160
Pd    0.00880    -1.88490    -0.00490
H    -3.10660    -1.77260    -1.47850
C    -3.83320    0.18750    -1.94220
H    -2.32890    0.96840    2.02790
C    -2.02950    -1.08370    2.58140
H    -4.17220    -2.13470    0.55700
H    -5.34430    -1.05970    -0.15890
H    -4.45130    0.84030    1.07100
H    -4.60800    -0.43720    2.25200
H    1.61660    4.86220    0.72460
H    -0.01480    3.79550    2.59680
H    -4.72050    -0.18330    -2.45500
H    -3.08750    0.40940    -2.70600
H    -4.10540    1.12520    -1.45750
H    -2.29940    -2.08850    2.25760
H    -0.94380    -1.04200    2.67070
H    -2.44510    -0.94300    3.57950
H    3.44830    -1.82540    0.89740
C    3.22680    -0.37050    2.45730
H    2.44120    0.98010    -1.96930
C    2.06730    -1.03190    -2.61690
H    5.39810    -0.45620    0.44750
H    4.43790    1.00820    0.44460
H    4.72360    0.48830    -1.90390
H    4.43620    -1.20870    -1.61680
H    4.10020    -0.73980    2.99460
H    3.19060    0.70940    2.60270
H    2.34250    -0.80120    2.92670
H    2.52930    -0.88680    -3.59380
H    0.99030    -0.92280    -2.74360
H    2.26230    -2.06060    -2.31400

H Cl C P 0
6-31G(d)
****
Fe Pd 0
LANL2DZ
****

Fe Pd 0
LANL2DZ

