%nprocs=14
%mem=128GB
%chk=RR_Me_Ferrolane_4.chk
# PBEPBE gen 6D pseudo=read scf=maxcycles=500 denfit int=(grid=ultrafine) empiricaldispersion=GD3BJ opt freq=noraman

 RR_Me_Ferrolane

0 1
Fe    -0.04020    2.66610    0.03930
P    -1.81560    -0.26590    -0.04500
P    1.80670    -0.22830    0.10780
C    -1.51410    1.48650    -0.65980
C    -0.63020    1.84010    -1.73090
C    -0.60670    3.26370    -1.86370
C    -1.49880    3.80860    -0.88920
C    -2.06900    2.71710    -0.15750
C    1.46100    1.51230    0.72950
C    1.98980    2.75880    0.23840
C    1.39360    3.83200    0.97690
C    0.51360    3.26020    1.94700
C    0.56800    1.83860    1.80210
C    -3.28950    -0.85450    -0.98450
C    -4.32180    -1.13100    0.11870
C    -2.60840    -0.02180    1.58850
C    -4.10790    -0.15540    1.28850
C    3.29210    -0.78830    1.04600
C    4.33130    -1.03550    -0.05770
C    2.59520    0.04410    -1.52320
C    4.09700    -0.05840    -1.22230
H    -0.03730    1.14760    -2.30860
H    0.00710    3.82790    -2.55110
H    -1.68050    4.85850    -0.70880
H    -2.76160    2.81290    0.66570
H    2.68110    2.87640    -0.58300
H    -0.00690    1.12870    2.37670
Cl    -1.56610    -3.58880    -0.04670
Cl    1.62910    -3.55460    0.08590
Pd    0.01300    -1.86460    0.02540
H    -3.06710    -1.77570    -1.52310
C    -3.79590    0.17980    -2.00200
H    -2.39830    0.96050    2.00960
C    -2.10040    -1.09170    2.56320
H    -4.18260    -2.14980    0.48300
H    -5.34320    -1.08090    -0.26020
H    -4.49440    0.82220    0.99640
H    -4.67350    -0.45910    2.17010
H    1.55270    4.88700    0.80530
H    -0.11240    3.80520    2.63890
H    -3.03270    0.40850    -2.74610
H    -4.08740    1.11460    -1.52300
H    -4.66710    -0.19660    -2.53790
H    -2.54310    -0.95770    3.55060
H    -2.35500    -2.09700    2.22870
H    -1.01780    -1.04300    2.68130
H    3.08990    -1.71730    1.57940
C    3.77330    0.25230    2.06920
H    2.36380    1.02440    -1.93790
C    2.11160    -1.02990    -2.50570
H    4.21520    -2.05510    -0.42780
H    5.35100    -0.96490    0.32280
H    4.46170    0.92580    -0.92450
H    4.67000    -0.34470    -2.10500
H    4.65240    -0.10640    2.60420
H    4.04340    1.19600    1.59500
H    3.00410    0.45960    2.81340
H    2.38780    -2.03170    -2.17780
H    2.55210    -0.87960    -3.49160
H    1.02830    -1.00390    -2.62440

H Cl C P 0
6-31G(d)
****
Fe Pd 0
LANL2DZ
****

Fe Pd 0
LANL2DZ

