%nprocs=28
%mem=128GB
%chk=RR_Me_Ferrolane_1_SPE.chk
# PBE1PBE gen pseudo=read int=(grid=ultrafine) empiricaldispersion=GD3BJ nmr=giao 

RR_Me_Ferrolane_1 title 

0 1
Fe    -0.0368124839    2.6182566425    0.0408270715
P    -1.7915291908    -0.2721492576    0.0574114337
P    1.7806907594    -0.2328659825    0.0069120476
C    -1.5524524242    1.4397376859    -0.5230477628
C    -0.733596489    1.7855178503    -1.6656477432
C    -0.722749759    3.2126264397    -1.8037980633
C    -1.5433073585    3.7664505374    -0.7658828311
C    -2.0647273154    2.6832050971    0.0189814971
C    1.5042248991    1.4698317502    0.5976371325
C    1.9891657222    2.7274358678    0.0631223988
C    1.4442723969    3.7942709328    0.8544964708
C    0.6361224792    3.2163923612    1.8890345199
C    0.6781591362    1.7907208624    1.7422989275
C    -3.3158132495    -0.7834380001    -0.9175936742
C    -4.4634433445    -0.2235940441    -0.0560319139
C    -2.6784833394    -0.1163993121    1.7143460551
C    -4.1335823914    -0.5552578304    1.4075748774
C    3.3169216097    -0.71571281    0.9775524654
C    4.4507768989    -0.1244112767    0.1187991591
C    2.66233018    -0.0480048097    -1.6498598653
C    4.1275499523    -0.4545831967    -1.346630659
H    -0.1776807732    1.0738332056    -2.2761892553
H    -0.1483946582    3.7776894651    -2.5386349444
H    -1.7016919361    4.8275354307    -0.569326006
H    -2.6947850456    2.790089306    0.9017816939
H    2.6166686881    2.8533388016    -0.8189906849
H    0.1379966429    1.0633450996    2.3484795827
Cl    -1.6487221488    -3.4189606212    0.2367615542
Cl    1.7073819019    -3.3806597587    -0.1885839714
Pd    0.0105707796    -1.7009951765    0.0286306592
H    -3.3112844996    -1.885024998    -0.8459939958
C    -3.3219100851    -0.3583481107    -2.384353859
H    -2.6580117502    0.9584867295    1.9695764197
C    -2.0317843303    -0.9213770806    2.8465105781
H    -5.4280254392    -0.663733208    -0.3679079923
H    -4.5443118595    0.8721818633    -0.1999620517
H    -4.8370635411    -0.080830229    2.114699953
H    -4.2014095145    -1.6486113289    1.5534260299
H    1.5793812061    4.8597325465    0.6643371778
H    0.049638385    3.7643365315    2.6272474811
H    -2.4636455251    -0.7867498407    -2.929923876
H    -3.2921241366    0.7391058855    -2.4961162444
H    -4.2419724501    -0.7250567779    -2.872743062
H    -1.0107008503    -0.5719334499    3.076165297
H    -1.9635725362    -1.9866720943    2.5714774198
H    -2.6381416884    -0.8265705038    3.7653626652
H    3.3373014756    -1.8166546635    0.8989232819
C    3.31449169    -0.2999719808    2.4469969223
H    2.616523263    1.027373011    -1.8996557658
C    2.0333871819    -0.8621818347    -2.7854729593
H    5.4254337962    -0.5442219082    0.427364158
H    4.5066173558    0.9720170978    0.2694436076
H    4.8192746716    0.0404206657    -2.0512401846
H    4.2207915153    -1.5451402229    -1.4992650473
H    3.2598340148    0.7957861977    2.565788244
H    4.243027691    -0.6487536995    2.9324687898
H    2.4665938198    -0.7512752519    2.9903018214
H    1.990386311    -1.9301598333    -2.5157747678
H    2.6363032148    -0.7485774762    -3.7044581552
H    1.0041124751    -0.5356412952    -3.0122520572

P Cl H C 0
def2TZVP
****
Pd Fe 0
SDD
****

Pd Fe 0
SDD

--Link1--
%nprocs=28
%mem=128GB
%chk=RR_Me_Ferrolane_1_SPE.chk
# PBE1PBE gen pseudo=read int=(grid=ultrafine) empiricaldispersion=GD3BJ pop=nbo guess=read geom=check

RR_Me_Ferrolane_1 title 

0 1

P Cl H C 0
def2TZVP
****
Pd Fe 0
SDD
****

Pd Fe 0
SDD

