OPLS-SSSS-Ph-BIBOP
                    3D
 Structure written by MMmdl.
 77 81  0  0  1  0            999 V2000
   11.1856   -5.9824    7.3244 P   0  0  1  0  0  0
   13.3072   -3.8254    6.2821 P   0  0  2  0  0  0
   10.4711   -6.2837    4.7656 O   0  0  0  0  0  0
   11.8756   -3.7399    4.0256 O   0  0  0  0  0  0
   11.5282   -7.5560    6.4278 C   0  0  0  0  0  0
   12.1989   -8.7141    6.8781 C   0  0  0  0  0  0
   12.2486   -9.8314    6.0143 C   0  0  0  0  0  0
   12.7500  -10.7324    6.3381 H   0  0  0  0  0  0
   11.6675   -9.7831    4.7289 C   0  0  0  0  0  0
   11.7170  -10.6457    4.0807 H   0  0  0  0  0  0
   11.0483   -8.6009    4.2782 C   0  0  0  0  0  0
   10.6264   -8.5403    3.2856 H   0  0  0  0  0  0
   11.0043   -7.4886    5.1342 C   0  0  0  0  0  0
   10.9320   -5.2498    5.6410 C   0  0  2  0  0  0
   10.1791   -4.4637    5.6964 H   0  0  0  0  0  0
   12.2515   -4.6896    5.0278 C   0  0  2  0  0  0
   12.8226   -5.4941    4.5644 H   0  0  0  0  0  0
   11.7526   -2.4938    4.5768 C   0  0  0  0  0  0
   11.0504   -1.4477    3.9566 C   0  0  0  0  0  0
   10.5977   -1.5964    2.9872 H   0  0  0  0  0  0
   10.9313   -0.2153    4.6281 C   0  0  0  0  0  0
   10.3881    0.5977    4.1690 H   0  0  0  0  0  0
   11.4952   -0.0517    5.9117 C   0  0  0  0  0  0
   11.3700    0.8871    6.4323 H   0  0  0  0  0  0
   12.2069   -1.1024    6.5333 C   0  0  0  0  0  0
   12.3600   -2.3126    5.8220 C   0  0  0  0  0  0
    9.5129   -6.0789    8.1339 C   0  0  0  0  0  0
    9.2316   -4.7049    8.7629 C   0  0  0  0  0  0
    8.2609   -4.6897    9.2595 H   0  0  0  0  0  0
    9.2264   -3.9152    8.0105 H   0  0  0  0  0  0
    9.9827   -4.4458    9.5096 H   0  0  0  0  0  0
    8.4175   -6.4319    7.1087 C   0  0  0  0  0  0
    8.6171   -7.3842    6.6170 H   0  0  0  0  0  0
    8.3158   -5.6745    6.3323 H   0  0  0  0  0  0
    7.4430   -6.5192    7.5898 H   0  0  0  0  0  0
    9.5240   -7.1816    9.2065 C   0  0  0  0  0  0
    8.5502   -7.2710    9.6887 H   0  0  0  0  0  0
   10.2470   -6.9996    9.9952 H   0  0  0  0  0  0
    9.7564   -8.1525    8.7689 H   0  0  0  0  0  0
   15.0242   -3.7246    5.5720 C   0  0  0  0  0  0
   15.7765   -2.5451    6.2121 C   0  0  0  0  0  0
   15.8843   -2.6436    7.2875 H   0  0  0  0  0  0
   16.7831   -2.4526    5.8035 H   0  0  0  0  0  0
   15.2639   -1.6025    6.0208 H   0  0  0  0  0  0
   14.9844   -3.4858    4.0499 C   0  0  0  0  0  0
   15.9907   -3.3953    3.6402 H   0  0  0  0  0  0
   14.4542   -2.5667    3.7996 H   0  0  0  0  0  0
   14.5012   -4.3019    3.5140 H   0  0  0  0  0  0
   15.7251   -5.0564    5.8846 C   0  0  0  0  0  0
   15.1962   -5.8998    5.4388 H   0  0  0  0  0  0
   15.7854   -5.2339    6.9587 H   0  0  0  0  0  0
   16.7438   -5.0669    5.4957 H   0  0  0  0  0  0
   12.9709   -4.8310    8.4288 Pd  0  0  0  0  0  0
   14.8059   -3.7597    9.3764 Cl  0  0  0  0  0  0
   12.4822   -5.7669   10.5020 Cl  0  0  0  0  0  0
   14.2185   -8.9193   10.6650 C   0  0  0  0  0  0
   12.9949   -9.5920   10.4845 C   0  0  0  0  0  0
   12.3279   -9.5207    9.2459 C   0  0  0  0  0  0
   12.8699   -8.7701    8.1817 C   0  0  0  0  0  0
   14.0977   -8.1006    8.3720 C   0  0  0  0  0  0
   14.7721   -8.1748    9.6062 C   0  0  0  0  0  0
   14.7300   -8.9712   11.6153 H   0  0  0  0  0  0
   12.5684  -10.1637   11.2957 H   0  0  0  0  0  0
   11.3934  -10.0456    9.1105 H   0  0  0  0  0  0
   14.5328   -7.5384    7.5589 H   0  0  0  0  0  0
   15.7106   -7.6574    9.7434 H   0  0  0  0  0  0
   13.6604   -0.5478   10.5384 C   0  0  0  0  0  0
   12.5286   -1.3503   10.3003 C   0  0  0  0  0  0
   12.0659   -1.5389    8.9835 C   0  0  0  0  0  0
   12.7240   -0.9269    7.8952 C   0  0  0  0  0  0
   13.8518   -0.1176    8.1451 C   0  0  0  0  0  0
   14.3228    0.0682    9.4595 C   0  0  0  0  0  0
   14.0220   -0.4079   11.5470 H   0  0  0  0  0  0
   12.0197   -1.8244   11.1272 H   0  0  0  0  0  0
   11.1898   -2.1454    8.8073 H   0  0  0  0  0  0
   14.3592    0.3642    7.3219 H   0  0  0  0  0  0
   15.1916    0.6844    9.6401 H   0  0  0  0  0  0
  1 27  1  0  0  0
  1  5  1  0  0  0
  1 14  1  0  0  0
  2 40  1  0  0  0
  2 26  1  0  0  0
  2 16  1  0  0  0
  3 13  1  0  0  0
  3 14  1  0  0  0
  4 16  1  0  0  0
  4 18  1  0  0  0
  5 13  2  0  0  0
  5  6  1  0  0  0
  6  7  2  0  0  0
  6 59  1  0  0  0
  7  9  1  0  0  0
  7  8  1  0  0  0
  9 10  1  0  0  0
  9 11  2  0  0  0
 11 12  1  0  0  0
 11 13  1  0  0  0
 14 16  1  0  0  0
 14 15  1  0  0  0
 16 17  1  0  0  0
 18 19  2  0  0  0
 18 26  1  0  0  0
 19 20  1  0  0  0
 19 21  1  0  0  0
 21 22  1  0  0  0
 21 23  2  0  0  0
 23 24  1  0  0  0
 23 25  1  0  0  0
 25 26  2  0  0  0
 25 70  1  0  0  0
 27 36  1  0  0  0
 27 28  1  0  0  0
 27 32  1  0  0  0
 28 31  1  0  0  0
 28 29  1  0  0  0
 28 30  1  0  0  0
 32 33  1  0  0  0
 32 34  1  0  0  0
 32 35  1  0  0  0
 36 38  1  0  0  0
 36 39  1  0  0  0
 36 37  1  0  0  0
 40 45  1  0  0  0
 40 41  1  0  0  0
 40 49  1  0  0  0
 41 43  1  0  0  0
 41 42  1  0  0  0
 41 44  1  0  0  0
 45 47  1  0  0  0
 45 48  1  0  0  0
 45 46  1  0  0  0
 49 50  1  0  0  0
 49 51  1  0  0  0
 49 52  1  0  0  0
 53 54  1  0  0  0
 53 55  1  0  0  0
 56 57  2  0  0  0
 56 61  1  0  0  0
 56 62  1  0  0  0
 57 58  1  0  0  0
 57 63  1  0  0  0
 58 59  2  0  0  0
 58 64  1  0  0  0
 59 60  1  0  0  0
 60 61  2  0  0  0
 60 65  1  0  0  0
 61 66  1  0  0  0
 67 68  2  0  0  0
 67 72  1  0  0  0
 67 73  1  0  0  0
 68 69  1  0  0  0
 68 74  1  0  0  0
 69 70  2  0  0  0
 69 75  1  0  0  0
 70 71  1  0  0  0
 71 72  2  0  0  0
 71 76  1  0  0  0
 72 77  1  0  0  0
M  END
> <s_m_entry_id>
604

> <s_m_entry_name>
OPLS-SSSS-Ph-BIBOP.1

> <chiral flag>
1

> <version>
0

> <s_m_Source_Path>
/home/sigmangrp/Dropbox/Current Group People/Jordan_D/OPT_10_26_21

> <s_m_Source_File>
OPLS-SSSS-Ph-BIBOP.sdf

> <i_m_Source_File_Index>
1

> <s_m_job_name>
mmod_csearch_2382

> <r_mmod_Potential_Energy-OPLS-2005>
159.060729980469

> <b_mmod_Minimization_Converged-OPLS-2005>
1

> <r_mmod_RMS_Derivative-OPLS-2005>
0.000962125952355564

> <i_mmod_Times_Found-OPLS-2005>
986040

> <r_mmod_Relative_Potential_Energy-OPLS-2005>
0

> <i_mmod_Conformation-OPLS-2005>
1

> <i_mmod_Serial_Number-OPLS-2005>
9

> <s_m_subgroup_title>
mmod_csearch_2382-out1

> <s_m_subgroupid>
mmod_csearch_2382-out1

> <b_m_subgroup_collapsed>
0

$$$$
