M003_1
                    3D
 Structure written by MMmdl.
134138  0  0  1  0            999 V2000
    0.0411   -1.6651    1.7237 Fe  0  2  0  0  0  0
    1.7976   -0.1090   -0.7461 P   0  0  0  0  0  0
   -1.7823    0.1703   -0.5695 P   0  0  0  0  0  0
    1.5462   -1.5437    0.4166 C   0  0  2  0  0  0
    0.6620   -2.6117    0.0359 C   0  5  1  0  0  0
    0.6121   -3.5737    1.0877 C   0  0  1  0  0  0
    1.4437   -3.1228    2.1512 C   0  0  1  0  0  0
    2.0547   -1.9006    1.7204 C   0  0  1  0  0  0
   -1.4625   -0.4264    1.1960 C   0  0  1  0  0  0
   -1.9868   -1.5127    1.9976 C   0  0  1  0  0  0
   -1.3308   -1.5441    3.2686 C   0  0  2  0  0  0
   -0.4441   -0.4314    3.3138 C   0  0  2  0  0  0
   -0.5275    0.2483    2.0611 C   0  5  1  0  0  0
    3.4207   -0.6113   -1.5552 C   0  0  0  0  0  0
    4.1865    0.3442   -2.2590 C   0  0  0  0  0  0
    5.4164    0.0008   -2.8586 C   0  0  0  0  0  0
    5.8922   -1.3198   -2.7500 C   0  0  0  0  0  0
    5.1421   -2.2943   -2.0644 C   0  0  0  0  0  0
    3.9112   -1.9343   -1.4756 C   0  0  0  0  0  0
    2.2771    1.4992    0.0982 C   0  0  0  0  0  0
    3.5806    1.7351    0.5862 C   0  0  0  0  0  0
    3.9414    2.9786    1.1508 C   0  0  0  0  0  0
    2.9782    4.0017    1.2406 C   0  0  0  0  0  0
    1.6777    3.7980    0.7405 C   0  0  0  0  0  0
    1.3443    2.5553    0.1627 C   0  0  0  0  0  0
   -2.3920    1.9114   -0.2135 C   0  0  0  0  0  0
   -2.9010    2.2838    1.0517 C   0  0  0  0  0  0
   -3.3806    3.5870    1.2950 C   0  0  0  0  0  0
   -3.3433    4.5424    0.2596 C   0  0  0  0  0  0
   -2.8352    4.1968   -1.0082 C   0  0  0  0  0  0
   -2.3695    2.8835   -1.2358 C   0  0  0  0  0  0
   -3.3842   -0.6127   -1.1452 C   0  0  0  0  0  0
   -4.6479   -0.1554   -0.7101 C   0  0  0  0  0  0
   -5.8396   -0.7670   -1.1529 C   0  0  0  0  0  0
   -5.7689   -1.8544   -2.0453 C   0  0  0  0  0  0
   -4.5211   -2.3198   -2.5028 C   0  0  0  0  0  0
   -3.3392   -1.6978   -2.0454 C   0  0  0  0  0  0
    0.0957   -2.6748   -0.8815 H   0  0  0  0  0  0
    0.0525    1.1197    1.8150 H   0  0  0  0  0  0
    3.8315    1.3611   -2.3417 H   0  0  0  0  0  0
    6.8400   -1.5887   -3.1930 H   0  0  0  0  0  0
    3.3577   -2.6919   -0.9409 H   0  0  0  0  0  0
    4.3271    0.9583    0.5071 H   0  0  0  0  0  0
    3.2503    4.9491    1.6835 H   0  0  0  0  0  0
    0.3484    2.4306   -0.2314 H   0  0  0  0  0  0
   -2.9485    1.5702    1.8623 H   0  0  0  0  0  0
   -3.7055    5.5449    0.4344 H   0  0  0  0  0  0
   -2.0033    2.6333   -2.2199 H   0  0  0  0  0  0
   -4.7266    0.6646   -0.0134 H   0  0  0  0  0  0
   -6.6756   -2.3383   -2.3789 H   0  0  0  0  0  0
   -2.3868   -2.0666   -2.3975 H   0  0  0  0  0  0
    1.4608    0.1812   -4.0548 Cl  0  0  0  0  0  0
   -1.7255    0.4653   -3.8765 Cl  0  0  0  0  0  0
   -0.0501    0.1608   -2.2809 Pd  0  0  0  0  0  0
    3.0716   -1.1108    2.5190 C   0  0  2  0  0  0
    0.2021   -0.1807    4.1409 H   0  0  0  0  0  0
   -1.4934   -2.2632    4.0581 H   0  0  0  0  0  0
   -3.1283   -2.4543    1.6659 C   0  0  2  0  0  0
    2.8027   -0.0687    2.3533 H   0  0  0  0  0  0
    4.4060   -1.2517    1.9335 N   0  0  0  0  0  0
    5.3997   -0.4274    2.6190 C   0  0  0  0  0  0
    4.9237   -2.6173    1.8507 C   0  0  0  0  0  0
    6.3301   -0.3912    2.0505 H   0  0  0  0  0  0
    5.0479    0.5946    2.7466 H   0  0  0  0  0  0
    5.6306   -0.8181    3.6118 H   0  0  0  0  0  0
    5.8355   -2.6335    1.2530 H   0  0  0  0  0  0
    5.1766   -3.0243    2.8287 H   0  0  0  0  0  0
    4.2164   -3.2934    1.3690 H   0  0  0  0  0  0
    2.9049   -1.5077    6.8682 C   0  0  0  0  0  0
    3.2028   -2.6359    6.0825 C   0  0  0  0  0  0
    3.2576   -2.5237    4.6798 C   0  0  0  0  0  0
    3.0009   -1.2874    4.0422 C   0  0  0  0  0  0
    2.7262   -0.1574    4.8460 C   0  0  0  0  0  0
    2.6708   -0.2665    6.2489 C   0  0  0  0  0  0
    2.8647   -1.5925    7.9448 H   0  0  0  0  0  0
    3.3941   -3.5883    6.5558 H   0  0  0  0  0  0
    3.4941   -3.4004    4.0969 H   0  0  0  0  0  0
    2.5566    0.8081    4.3920 H   0  0  0  0  0  0
    2.4537    0.6038    6.8519 H   0  0  0  0  0  0
   -4.1753   -2.3661    2.6886 N   0  0  0  0  0  0
   -3.5864   -2.1575    0.7308 H   0  0  0  0  0  0
   -5.3359   -3.1885    2.3419 C   0  0  0  0  0  0
   -4.6698   -1.0028    2.8903 C   0  0  0  0  0  0
   -5.7776   -2.8816    1.3928 H   0  0  0  0  0  0
   -5.0769   -4.2451    2.2659 H   0  0  0  0  0  0
   -6.1061   -3.1127    3.1110 H   0  0  0  0  0  0
   -5.0997   -0.5877    1.9800 H   0  0  0  0  0  0
   -5.4416   -0.9853    3.6611 H   0  0  0  0  0  0
   -3.8814   -0.3313    3.2318 H   0  0  0  0  0  0
   -1.8490   -6.5871    1.1573 C   0  0  0  0  0  0
   -1.9155   -6.0263    2.4469 C   0  0  0  0  0  0
   -2.3116   -4.6847    2.6113 C   0  0  0  0  0  0
   -2.6379   -3.8887    1.4888 C   0  0  0  0  0  0
   -2.5769   -4.4643    0.2009 C   0  0  0  0  0  0
   -2.1834   -5.8066    0.0345 C   0  0  0  0  0  0
   -1.5505   -7.6180    1.0304 H   0  0  0  0  0  0
   -2.3989   -4.2729    3.6065 H   0  0  0  0  0  0
   -2.8512   -3.8935   -0.6692 H   0  0  0  0  0  0
   -3.9286    3.9368    2.6703 C   0  0  0  0  0  0
   -2.9305    3.9512    3.5520 F   0  0  0  0  0  0
   -4.5251    5.1289    2.6743 F   0  0  0  0  0  0
   -4.8180    3.0152    3.0401 F   0  0  0  0  0  0
   -2.8055    5.2222   -2.1318 C   0  0  0  0  0  0
   -3.9271    5.1173   -2.8415 F   0  0  0  0  0  0
   -2.7128    6.4600   -1.6468 F   0  0  0  0  0  0
   -1.7643    5.0013   -2.9351 F   0  0  0  0  0  0
   -7.1856   -0.2760   -0.6422 C   0  0  0  0  0  0
   -7.1471    1.0355   -0.4067 F   0  0  0  0  0  0
   -8.1490   -0.5212   -1.5298 F   0  0  0  0  0  0
   -7.4707   -0.9107    0.4933 F   0  0  0  0  0  0
   -4.4515   -3.5071   -3.4510 C   0  0  0  0  0  0
   -4.5064   -4.6285   -2.7350 F   0  0  0  0  0  0
   -5.4738   -3.4854   -4.3051 F   0  0  0  0  0  0
   -3.3131   -3.4973   -4.1444 F   0  0  0  0  0  0
    6.2382    1.0499   -3.5920 C   0  0  0  0  0  0
    7.1342    1.5629   -2.7509 F   0  0  0  0  0  0
    6.8783    0.5037   -4.6257 F   0  0  0  0  0  0
    5.4623    2.0348   -4.0458 F   0  0  0  0  0  0
    5.6791   -3.7135   -1.9507 C   0  0  0  0  0  0
    6.1911   -4.1003   -3.1190 F   0  0  0  0  0  0
    6.6413   -3.7447   -1.0300 F   0  0  0  0  0  0
    4.7236   -4.5758   -1.6033 F   0  0  0  0  0  0
    5.3502    3.2266    1.6694 C   0  0  0  0  0  0
    6.2199    2.3647    1.1433 F   0  0  0  0  0  0
    5.7403    4.4630    1.3623 F   0  0  0  0  0  0
    5.3517    3.0909    2.9944 F   0  0  0  0  0  0
    0.6251    4.8921    0.8122 C   0  0  0  0  0  0
    0.1109    5.0868   -0.4008 F   0  0  0  0  0  0
   -0.3491    4.4978    1.6294 F   0  0  0  0  0  0
    1.1277    6.0421    1.2585 F   0  0  0  0  0  0
   -1.6752   -6.6286    3.3114 H   0  0  0  0  0  0
   -2.1460   -6.2416   -0.9545 H   0  0  0  0  0  0
    0.0124   -4.4694    1.1052 H   0  0  0  0  0  0
    1.5481   -3.6203    3.1023 H   0  0  0  0  0  0
  2 20  1  0  0  0
  2  4  1  0  0  0
  2 14  1  0  0  0
  3 26  1  0  0  0
  3  9  1  0  0  0
  3 32  1  0  0  0
  4  5  1  0  0  0
  4  8  2  0  0  0
  5  6  1  0  0  0
  5 38  1  0  0  0
  6133  1  0  0  0
  6  7  2  0  0  0
  7134  1  0  0  0
  7  8  1  0  0  0
  8 55  1  0  0  0
  9 10  2  0  0  0
  9 13  1  0  0  0
 10 58  1  0  0  0
 10 11  1  0  0  0
 11 12  2  0  0  0
 11 57  1  0  0  0
 12 56  1  0  0  0
 12 13  1  0  0  0
 13 39  1  0  0  0
 14 15  2  0  0  0
 14 19  1  0  0  0
 15 40  1  0  0  0
 15 16  1  0  0  0
 16 17  2  0  0  0
 16115  1  0  0  0
 17 18  1  0  0  0
 17 41  1  0  0  0
 18 19  2  0  0  0
 18119  1  0  0  0
 19 42  1  0  0  0
 20 21  1  0  0  0
 20 25  2  0  0  0
 21 43  1  0  0  0
 21 22  2  0  0  0
 22 23  1  0  0  0
 22123  1  0  0  0
 23 44  1  0  0  0
 23 24  2  0  0  0
 24127  1  0  0  0
 24 25  1  0  0  0
 25 45  1  0  0  0
 26 27  1  0  0  0
 26 31  2  0  0  0
 27 28  2  0  0  0
 27 46  1  0  0  0
 28 99  1  0  0  0
 28 29  1  0  0  0
 29 47  1  0  0  0
 29 30  2  0  0  0
 30 31  1  0  0  0
 30103  1  0  0  0
 31 48  1  0  0  0
 32 33  1  0  0  0
 32 37  2  0  0  0
 33 49  1  0  0  0
 33 34  2  0  0  0
 34107  1  0  0  0
 34 35  1  0  0  0
 35 36  2  0  0  0
 35 50  1  0  0  0
 36 37  1  0  0  0
 36111  1  0  0  0
 37 51  1  0  0  0
 52 54  1  0  0  0
 53 54  1  0  0  0
 55 59  1  0  0  0
 55 72  1  0  0  0
 55 60  1  0  0  0
 58 81  1  0  0  0
 58 80  1  0  0  0
 58 93  1  0  0  0
 60 61  1  0  0  0
 60 62  1  0  0  0
 61 64  1  0  0  0
 61 65  1  0  0  0
 61 63  1  0  0  0
 62 67  1  0  0  0
 62 66  1  0  0  0
 62 68  1  0  0  0
 69 75  1  0  0  0
 69 70  2  0  0  0
 69 74  1  0  0  0
 70 76  1  0  0  0
 70 71  1  0  0  0
 71 72  2  0  0  0
 71 77  1  0  0  0
 72 73  1  0  0  0
 73 74  2  0  0  0
 73 78  1  0  0  0
 74 79  1  0  0  0
 80 83  1  0  0  0
 80 82  1  0  0  0
 82 86  1  0  0  0
 82 84  1  0  0  0
 82 85  1  0  0  0
 83 89  1  0  0  0
 83 88  1  0  0  0
 83 87  1  0  0  0
 90 95  1  0  0  0
 90 91  2  0  0  0
 90 96  1  0  0  0
 91 92  1  0  0  0
 91131  1  0  0  0
 92 93  2  0  0  0
 92 97  1  0  0  0
 93 94  1  0  0  0
 94 98  1  0  0  0
 94 95  2  0  0  0
 95132  1  0  0  0
 99100  1  0  0  0
 99101  1  0  0  0
 99102  1  0  0  0
103105  1  0  0  0
103104  1  0  0  0
103106  1  0  0  0
107110  1  0  0  0
107108  1  0  0  0
107109  1  0  0  0
111114  1  0  0  0
111112  1  0  0  0
111113  1  0  0  0
115116  1  0  0  0
115117  1  0  0  0
115118  1  0  0  0
119122  1  0  0  0
119121  1  0  0  0
119120  1  0  0  0
123125  1  0  0  0
123124  1  0  0  0
123126  1  0  0  0
127130  1  0  0  0
127129  1  0  0  0
127128  1  0  0  0
M  CHG  3   1   2   5  -1  13  -1
M  END
> <s_m_entry_id>
467

> <s_m_entry_name>
M003-1_6.1

> <program>
Gaussian 16, Revision B.01

> <chiral flag>
1

> <version>
0

> <s_m_Source_Path>
/home/sigmangrp/Documents/Schrodinger/conf_cluster_711

> <s_m_Source_File>
conf_cluster_711_ligand1_representatives.maegz

> <i_m_Source_File_Index>
2

> <r_mmod_Potential_Energy-OPLS-2005>
-6.69403457641602

> <b_mmod_Minimization_Converged-OPLS-2005>
1

> <r_mmod_RMS_Derivative-OPLS-2005>
0.000974819005932659

> <i_mmod_Times_Found-OPLS-2005>
31

> <r_mmod_Relative_Potential_Energy-OPLS-2005>
0.403484344482422

> <i_mmod_Conformation-OPLS-2005>
4

> <i_mmod_Serial_Number-OPLS-2005>
3

> <s_m_job_name>
mmod_csearch_2402

> <r_canvas_Distance_To_Centroid>
0

> <b_canvas_Is_Nearest_To_Centroid>
1

> <b_canvas_Is_Farthest_From_Centroid>
1

> <r_canvas_Max_Distance_From_Centroid>
0

> <r_canvas_Average_Distance_From_Centroid>
0

> <r_canvas_Cluster_Variance>
0

> <i_canvas_Canvas_Cluster_Index>
2

> <i_canvas_Canvas_Cluster_Size>
1

> <s_m_subgroup_title>
conf_cluster_711_ligand1_representatives

> <s_m_subgroupid>
conf_cluster_711_ligand1_representatives

> <b_m_subgroup_collapsed>
0

$$$$
