M003_1
                    3D
 Structure written by MMmdl.
134138  0  0  1  0            999 V2000
    0.0357   -1.6624    1.7322 Fe  0  2  0  0  0  0
    1.8059   -0.1101   -0.7299 P   0  0  0  0  0  0
   -1.7760    0.1640   -0.5786 P   0  0  0  0  0  0
    1.5498   -1.5414    0.4356 C   0  0  2  0  0  0
    0.6710   -2.6127    0.0520 C   0  5  1  0  0  0
    0.6162   -3.5715    1.1064 C   0  0  1  0  0  0
    1.4389   -3.1151    2.1744 C   0  0  1  0  0  0
    2.0499   -1.8927    1.7442 C   0  0  1  0  0  0
   -1.4668   -0.4281    1.1905 C   0  0  1  0  0  0
   -1.9945   -1.5135    1.9911 C   0  0  1  0  0  0
   -1.3477   -1.5407    3.2667 C   0  0  2  0  0  0
   -0.4639   -0.4258    3.3155 C   0  0  2  0  0  0
   -0.5395    0.2506    2.0605 C   0  5  1  0  0  0
    3.4324   -0.6175   -1.5287 C   0  0  0  0  0  0
    4.2101    0.3373   -2.2197 C   0  0  0  0  0  0
    5.4464   -0.0069   -2.8040 C   0  0  0  0  0  0
    5.9060   -1.3353   -2.7158 C   0  0  0  0  0  0
    5.1412   -2.3107   -2.0469 C   0  0  0  0  0  0
    3.9126   -1.9447   -1.4573 C   0  0  0  0  0  0
    2.2794    1.5013    0.1119 C   0  0  0  0  0  0
    3.5806    1.7410    0.6040 C   0  0  0  0  0  0
    3.9381    2.9875    1.1640 C   0  0  0  0  0  0
    2.9732    4.0095    1.2464 C   0  0  0  0  0  0
    1.6744    3.8016    0.7434 C   0  0  0  0  0  0
    1.3448    2.5561    0.1695 C   0  0  0  0  0  0
   -2.3884    1.9057   -0.2304 C   0  0  0  0  0  0
   -2.9055    2.2812    1.0306 C   0  0  0  0  0  0
   -3.3869    3.5850    1.2676 C   0  0  0  0  0  0
   -3.3430    4.5377    0.2301 C   0  0  0  0  0  0
   -2.8268    4.1891   -1.0335 C   0  0  0  0  0  0
   -2.3595    2.8753   -1.2549 C   0  0  0  0  0  0
   -3.3753   -0.6198   -1.1615 C   0  0  0  0  0  0
   -4.6406   -0.1640   -0.7294 C   0  0  0  0  0  0
   -5.8309   -0.7725   -1.1800 C   0  0  0  0  0  0
   -5.7574   -1.8595   -2.0728 C   0  0  0  0  0  0
   -4.5073   -2.3315   -2.5179 C   0  0  0  0  0  0
   -3.3276   -1.7031   -2.0637 C   0  0  0  0  0  0
    0.1113   -2.6803   -0.8692 H   0  0  0  0  0  0
    0.0406    1.1226    1.8163 H   0  0  0  0  0  0
    3.8615    1.3562   -2.3064 H   0  0  0  0  0  0
    6.8497   -1.6111   -3.1630 H   0  0  0  0  0  0
    3.3504   -2.7038   -0.9336 H   0  0  0  0  0  0
    4.3286    0.9653    0.5305 H   0  0  0  0  0  0
    3.2426    4.9593    1.6858 H   0  0  0  0  0  0
    0.3504    2.4285   -0.2276 H   0  0  0  0  0  0
   -2.9581    1.5696    1.8427 H   0  0  0  0  0  0
   -3.7065    5.5407    0.4000 H   0  0  0  0  0  0
   -1.9871    2.6226   -2.2361 H   0  0  0  0  0  0
   -4.7221    0.6550   -0.0320 H   0  0  0  0  0  0
   -6.6642   -2.3356   -2.4172 H   0  0  0  0  0  0
   -2.3753   -2.0659   -2.4226 H   0  0  0  0  0  0
    1.4924    0.1747   -4.0402 Cl  0  0  0  0  0  0
   -1.6959    0.4513   -3.8863 Cl  0  0  0  0  0  0
   -0.0318    0.1534   -2.2777 Pd  0  0  0  0  0  0
    3.0579   -1.0968    2.5480 C   0  0  2  0  0  0
    0.1758   -0.1715    4.1467 H   0  0  0  0  0  0
   -1.5147   -2.2587    4.0563 H   0  0  0  0  0  0
   -3.1320   -2.4576    1.6531 C   0  0  2  0  0  0
    2.7849   -0.0562    2.3794 H   0  0  0  0  0  0
    4.3967   -1.2310    1.9710 N   0  0  0  0  0  0
    5.3818   -0.4020    2.6631 C   0  0  0  0  0  0
    4.9215   -2.5940    1.8913 C   0  0  0  0  0  0
    6.3159   -0.3615    2.1010 H   0  0  0  0  0  0
    5.0242    0.6183    2.7881 H   0  0  0  0  0  0
    5.6079   -0.7916    3.6575 H   0  0  0  0  0  0
    5.8385   -2.6050    1.3013 H   0  0  0  0  0  0
    5.1682   -3.0008    2.8709 H   0  0  0  0  0  0
    4.2216   -3.2728    1.4028 H   0  0  0  0  0  0
    2.8672   -1.4912    6.8964 C   0  0  0  0  0  0
    3.1748   -2.6186    6.1133 C   0  0  0  0  0  0
    3.2374   -2.5072    4.7109 C   0  0  0  0  0  0
    2.9788   -1.2725    4.0709 C   0  0  0  0  0  0
    2.6943   -0.1432    4.8721 C   0  0  0  0  0  0
    2.6311   -0.2515    6.2748 C   0  0  0  0  0  0
    2.8211   -1.5753    7.9728 H   0  0  0  0  0  0
    3.3676   -3.5698    6.5885 H   0  0  0  0  0  0
    3.4811   -3.3833    4.1300 H   0  0  0  0  0  0
    2.5229    0.8211    4.4163 H   0  0  0  0  0  0
    2.4065    0.6182    6.8758 H   0  0  0  0  0  0
   -4.1854   -2.3715    2.6695 N   0  0  0  0  0  0
   -3.5852   -2.1620    0.7154 H   0  0  0  0  0  0
   -5.3428   -3.1952    2.3153 C   0  0  0  0  0  0
   -4.6832   -1.0091    2.8693 C   0  0  0  0  0  0
   -5.7801   -2.8872    1.3646 H   0  0  0  0  0  0
   -5.0817   -4.2513    2.2387 H   0  0  0  0  0  0
   -6.1170   -3.1219    3.0805 H   0  0  0  0  0  0
   -5.1088   -0.5941    1.9570 H   0  0  0  0  0  0
   -5.4593   -0.9934    3.6359 H   0  0  0  0  0  0
   -3.8979   -0.3364    3.2155 H   0  0  0  0  0  0
   -1.8381   -6.5863    1.1503 C   0  0  0  0  0  0
   -2.1599   -5.8036    0.0252 C   0  0  0  0  0  0
   -2.5587   -4.4628    0.1903 C   0  0  0  0  0  0
   -2.6371   -3.8907    1.4786 C   0  0  0  0  0  0
   -2.3219   -4.6882    2.6032 C   0  0  0  0  0  0
   -1.9213   -6.0288    2.4403 C   0  0  0  0  0  0
   -1.5350   -7.6161    1.0245 H   0  0  0  0  0  0
   -2.8212   -3.8893   -0.6816 H   0  0  0  0  0  0
   -2.4206   -4.2782    3.5981 H   0  0  0  0  0  0
   -3.9438    3.9380    2.6384 C   0  0  0  0  0  0
   -4.8352    3.0171    3.0049 F   0  0  0  0  0  0
   -2.9514    3.9550    3.5264 F   0  0  0  0  0  0
   -4.5407    5.1300    2.6356 F   0  0  0  0  0  0
   -2.7900    5.2122   -2.1591 C   0  0  0  0  0  0
   -3.9114    5.1122   -2.8700 F   0  0  0  0  0  0
   -2.6916    6.4502   -1.6756 F   0  0  0  0  0  0
   -1.7489    4.9849   -2.9607 F   0  0  0  0  0  0
   -7.1783   -0.2765   -0.6782 C   0  0  0  0  0  0
   -8.1406   -0.5336   -1.5636 F   0  0  0  0  0  0
   -7.4646   -0.8964    0.4652 F   0  0  0  0  0  0
   -7.1407    1.0379   -0.4597 F   0  0  0  0  0  0
   -4.4290   -3.5069   -3.4807 C   0  0  0  0  0  0
   -3.2899   -4.1779   -3.3040 F   0  0  0  0  0  0
   -5.4458   -4.3446   -3.2806 F   0  0  0  0  0  0
   -4.4761   -3.0546   -4.7314 F   0  0  0  0  0  0
    6.2657    1.0492   -3.5304 C   0  0  0  0  0  0
    7.5602    0.7310   -3.5336 F   0  0  0  0  0  0
    5.8408    1.1443   -4.7886 F   0  0  0  0  0  0
    6.1235    2.2345   -2.9358 F   0  0  0  0  0  0
    5.6552   -3.7397   -1.9490 C   0  0  0  0  0  0
    4.6598   -4.6008   -1.7371 F   0  0  0  0  0  0
    6.2758   -4.0846   -3.0774 F   0  0  0  0  0  0
    6.5210   -3.8259   -0.9405 F   0  0  0  0  0  0
    5.3452    3.2398    1.6854 C   0  0  0  0  0  0
    5.7357    4.4742    1.3709 F   0  0  0  0  0  0
    5.3424    3.1137    3.0113 F   0  0  0  0  0  0
    6.2173    2.3745    1.1685 F   0  0  0  0  0  0
    0.6198    4.8943    0.8070 C   0  0  0  0  0  0
    0.1138    5.0871   -0.4097 F   0  0  0  0  0  0
   -0.3594    4.4991    1.6178 F   0  0  0  0  0  0
    1.1176    6.0454    1.2559 F   0  0  0  0  0  0
   -2.1070   -6.2351   -0.9647 H   0  0  0  0  0  0
   -1.6895   -6.6324    3.3062 H   0  0  0  0  0  0
    0.0187   -4.4687    1.1227 H   0  0  0  0  0  0
    1.5377   -3.6092    3.1279 H   0  0  0  0  0  0
  2 20  1  0  0  0
  2  4  1  0  0  0
  2 14  1  0  0  0
  3 26  1  0  0  0
  3  9  1  0  0  0
  3 32  1  0  0  0
  4  5  1  0  0  0
  4  8  2  0  0  0
  5  6  1  0  0  0
  5 38  1  0  0  0
  6133  1  0  0  0
  6  7  2  0  0  0
  7134  1  0  0  0
  7  8  1  0  0  0
  8 55  1  0  0  0
  9 10  2  0  0  0
  9 13  1  0  0  0
 10 58  1  0  0  0
 10 11  1  0  0  0
 11 12  2  0  0  0
 11 57  1  0  0  0
 12 56  1  0  0  0
 12 13  1  0  0  0
 13 39  1  0  0  0
 14 15  2  0  0  0
 14 19  1  0  0  0
 15 40  1  0  0  0
 15 16  1  0  0  0
 16 17  2  0  0  0
 16115  1  0  0  0
 17 18  1  0  0  0
 17 41  1  0  0  0
 18 19  2  0  0  0
 18119  1  0  0  0
 19 42  1  0  0  0
 20 21  1  0  0  0
 20 25  2  0  0  0
 21 43  1  0  0  0
 21 22  2  0  0  0
 22 23  1  0  0  0
 22123  1  0  0  0
 23 44  1  0  0  0
 23 24  2  0  0  0
 24127  1  0  0  0
 24 25  1  0  0  0
 25 45  1  0  0  0
 26 27  1  0  0  0
 26 31  2  0  0  0
 27 28  2  0  0  0
 27 46  1  0  0  0
 28 99  1  0  0  0
 28 29  1  0  0  0
 29 47  1  0  0  0
 29 30  2  0  0  0
 30 31  1  0  0  0
 30103  1  0  0  0
 31 48  1  0  0  0
 32 33  1  0  0  0
 32 37  2  0  0  0
 33 49  1  0  0  0
 33 34  2  0  0  0
 34107  1  0  0  0
 34 35  1  0  0  0
 35 36  2  0  0  0
 35 50  1  0  0  0
 36 37  1  0  0  0
 36111  1  0  0  0
 37 51  1  0  0  0
 52 54  1  0  0  0
 53 54  1  0  0  0
 55 59  1  0  0  0
 55 72  1  0  0  0
 55 60  1  0  0  0
 58 81  1  0  0  0
 58 80  1  0  0  0
 58 93  1  0  0  0
 60 61  1  0  0  0
 60 62  1  0  0  0
 61 64  1  0  0  0
 61 65  1  0  0  0
 61 63  1  0  0  0
 62 67  1  0  0  0
 62 66  1  0  0  0
 62 68  1  0  0  0
 69 75  1  0  0  0
 69 70  2  0  0  0
 69 74  1  0  0  0
 70 76  1  0  0  0
 70 71  1  0  0  0
 71 72  2  0  0  0
 71 77  1  0  0  0
 72 73  1  0  0  0
 73 74  2  0  0  0
 73 78  1  0  0  0
 74 79  1  0  0  0
 80 83  1  0  0  0
 80 82  1  0  0  0
 82 86  1  0  0  0
 82 84  1  0  0  0
 82 85  1  0  0  0
 83 89  1  0  0  0
 83 88  1  0  0  0
 83 87  1  0  0  0
 90 95  1  0  0  0
 90 91  2  0  0  0
 90 96  1  0  0  0
 91 92  1  0  0  0
 91131  1  0  0  0
 92 93  2  0  0  0
 92 97  1  0  0  0
 93 94  1  0  0  0
 94 98  1  0  0  0
 94 95  2  0  0  0
 95132  1  0  0  0
 99100  1  0  0  0
 99101  1  0  0  0
 99102  1  0  0  0
103105  1  0  0  0
103104  1  0  0  0
103106  1  0  0  0
107110  1  0  0  0
107108  1  0  0  0
107109  1  0  0  0
111114  1  0  0  0
111112  1  0  0  0
111113  1  0  0  0
115116  1  0  0  0
115117  1  0  0  0
115118  1  0  0  0
119122  1  0  0  0
119121  1  0  0  0
119120  1  0  0  0
123125  1  0  0  0
123124  1  0  0  0
123126  1  0  0  0
127130  1  0  0  0
127129  1  0  0  0
127128  1  0  0  0
M  CHG  3   1   2   5  -1  13  -1
M  END
> <s_m_entry_id>
466

> <s_m_entry_name>
M003-1_6.1

> <program>
Gaussian 16, Revision B.01

> <chiral flag>
1

> <version>
0

> <s_m_Source_Path>
/home/sigmangrp/Documents/Schrodinger/conf_cluster_711

> <s_m_Source_File>
conf_cluster_711_ligand1_representatives.maegz

> <i_m_Source_File_Index>
1

> <r_mmod_Potential_Energy-OPLS-2005>
-7.09751892089844

> <b_mmod_Minimization_Converged-OPLS-2005>
1

> <r_mmod_RMS_Derivative-OPLS-2005>
0.000991040142253041

> <i_mmod_Times_Found-OPLS-2005>
315

> <r_mmod_Relative_Potential_Energy-OPLS-2005>
0

> <i_mmod_Conformation-OPLS-2005>
1

> <i_mmod_Serial_Number-OPLS-2005>
3

> <s_m_job_name>
mmod_csearch_2402

> <r_canvas_Distance_To_Centroid>
0.00898756645619869

> <b_canvas_Is_Nearest_To_Centroid>
1

> <b_canvas_Is_Farthest_From_Centroid>
1

> <r_canvas_Max_Distance_From_Centroid>
0.00898756645619869

> <r_canvas_Average_Distance_From_Centroid>
0.00898756645619869

> <r_canvas_Cluster_Variance>
8.07763508045879e-05

> <i_canvas_Canvas_Cluster_Index>
1

> <i_canvas_Canvas_Cluster_Size>
2

> <s_m_subgroup_title>
conf_cluster_711_ligand1_representatives

> <s_m_subgroupid>
conf_cluster_711_ligand1_representatives

> <b_m_subgroup_collapsed>
0

$$$$
