%nprocs=28
%mem=128GB
%chk=M003_1_1_SPE_NoPd.chk
# PBE1PBE gen pseudo=read int=(grid=ultrafine) empiricaldispersion=GD3BJ nmr=giao 

M003_1_1 title 

0 1
Fe    -0.0207573606    -1.5194394682    1.6919914869
P    1.7968366948    -0.0940627556    -0.7720030544
P    -1.7813040832    0.2962586294    -0.540408089
C    1.5041010016    -1.4370879802    0.413507368
C    0.5790102525    -2.4850681115    0.0169591343
C    0.4937642092    -3.4376653067    1.0770747517
C    1.3395579276    -2.9934968575    2.1366134057
C    1.9930336576    -1.7655953092    1.7521710319
C    -1.5321260093    -0.3034273015    1.1749879567
C    -2.0521093477    -1.4184344104    1.9683978652
C    -1.3698699998    -1.3769036316    3.2372536842
C    -0.4731706603    -0.2667138973    3.2624426306
C    -0.5608573411    0.3968830774    1.999667207
C    3.3569110089    -0.6197881073    -1.5889513095
C    4.1911857913    0.3254659728    -2.2115980999
C    5.3881221066    -0.0886393078    -2.8097193364
C    5.7593951853    -1.4391435213    -2.8028453554
C    4.9174834089    -2.3781592284    -2.1938659114
C    3.7162172925    -1.975206726    -1.5957058752
C    2.2882741552    1.4834683279    0.0478196018
C    3.5568599819    1.6700729785    0.6308495347
C    3.9000658093    2.9263014889    1.1509783485
C    2.9924005826    3.9964128    1.1097091679
C    1.7384197924    3.8077374418    0.5231068755
C    1.3949003997    2.5633068546    -0.0248449615
C    -2.4446961691    1.9848633194    -0.1835497607
C    -3.1131524359    2.2083331754    1.0314577294
C    -3.6458168558    3.471083748    1.3249927161
C    -3.4985245802    4.526132674    0.4196457866
C    -2.8233224259    4.302966022    -0.7893676356
C    -2.3013135266    3.0420562238    -1.1017324213
C    -3.2242291351    -0.6290025952    -1.2072251307
C    -4.5420562427    -0.2584457565    -0.9063142857
C    -5.6117521986    -1.0204260664    -1.3991153977
C    -5.3774520577    -2.1459563686    -2.1976806792
C    -4.058257435    -2.4941346655    -2.5200013374
C    -2.9842839041    -1.7362410994    -2.0367626576
H    0.0229547163    -2.5001652282    -0.9218672111
H    0.0155198827    1.2703590342    1.6953005963
H    3.9180418596    1.3821098209    -2.2294494187
H    6.6984471375    -1.7545908176    -3.2645910547
H    3.0712066641    -2.7232085787    -1.1300845113
H    4.2613325365    0.8308240485    0.6724466302
H    3.2720798905    4.9740350812    1.5088758841
H    0.4375817738    2.4372229749    -0.5426668488
H    -3.2242224743    1.400124203    1.7576069345
H    -3.8990280494    5.5157016651    0.6548851914
H    -1.7982790213    2.8724323293    -2.0585216319
H    -4.7472957693    0.6255000612    -0.296442845
H    -6.2127554106    -2.7384886148    -2.5762396928
H    -1.959288764    -1.9895652338    -2.3239703913
C    3.0414881692    -1.0156595859    2.5455330668
H    0.2182515921    -0.0221628235    4.0688423216
H    -1.5104824358    -2.1026762054    4.036499379
C    -3.2129386178    -2.3685359112    1.7005285259
H    2.8274218222    0.0641398146    2.4304336535
N    4.3816069695    -1.1960750378    1.9161782048
C    5.4360721531    -0.5324675695    2.6878426677
C    4.7812421471    -2.5698992256    1.6102321374
H    6.338040085    -0.4420199695    2.0588222221
H    5.1154380854    0.4777453943    2.9830743283
H    5.7072269555    -1.0849920705    3.6141256135
H    5.6275416327    -2.5467169772    0.9040024444
H    5.1074317604    -3.1448630624    2.5057373874
H    3.9563908197    -3.1142567085    1.126505591
C    2.9623419317    -1.651003682    6.8581844182
C    3.2525705489    -2.7274721295    6.0079089623
C    3.268962008    -2.5491978585    4.6173566779
C    2.991323187    -1.2889130092    4.0486591422
C    2.7330894499    -0.2120343153    4.9185392063
C    2.7071252129    -0.3870042269    6.3085695525
H    2.9471352781    -1.7944494418    7.943175017
H    3.4705855213    -3.7147337457    6.4284294339
H    3.5044559962    -3.4015276545    3.9742717847
H    2.5613895665    0.7850680162    4.4935068156
H    2.4968325405    0.4661210452    6.9618284859
N    -4.2241253242    -2.2061483095    2.7774205016
H    -3.6495278811    -2.1096008474    0.7145023787
C    -5.4015747917    -3.0386593134    2.4960740206
C    -4.6581100318    -0.81436575    2.9337184046
H    -5.9247779132    -2.7410161886    1.5592778642
H    -5.10877805    -4.0962664938    2.4154852109
H    -6.1142041433    -2.9376222616    3.3317529543
H    -5.147203719    -0.3998063187    2.0222019599
H    -5.3930325606    -0.7646685608    3.7545040344
H    -3.8074868378    -0.1723290694    3.2099967765
C    -1.8443504957    -6.4872161763    1.4086946318
C    -2.2118746461    -5.7749820269    0.257957039
C    -2.6697750209    -4.4545627468    0.3700608949
C    -2.7594930597    -3.8241502877    1.6208523378
C    -2.4175156988    -4.5541370243    2.7740488571
C    -1.9576992099    -5.8735587063    2.6676380987
H    -1.4844698523    -7.5180516989    1.32923028
H    -2.9534233704    -3.9054834658    -0.5299958103
H    -2.5458227569    -4.0897222991    3.7564893877
C    -4.3140545318    3.6772222596    2.6623318644
F    -5.0484269434    2.5834751162    3.0189340915
F    -3.3941480769    3.8729148049    3.6474564394
F    -5.1426927668    4.7513462693    2.6576372779
C    -2.6775067167    5.4577676351    -1.7549461098
F    -3.8808251602    5.7871717038    -2.3004239814
F    -2.2176418689    6.5672114798    -1.1095099204
F    -1.824546351    5.1778706813    -2.7663245249
C    -7.0156087069    -0.6347749408    -1.0011129441
F    -7.9524398736    -1.2479910247    -1.7655543656
F    -7.2654284475    -0.9778906568    0.3011229326
F    -7.2052466647    0.7067867421    -1.093107701
C    -3.7701608422    -3.6668470089    -3.4278359699
F    -2.7379273559    -4.4209935299    -2.9333141295
F    -4.8459363922    -4.4848089141    -3.5580137108
F    -3.4026484446    -3.2610225263    -4.6662127382
C    6.2518023941    0.927662519    -3.5189374129
F    7.5599158629    0.5489556913    -3.5284270945
F    5.8677312924    1.0894245591    -4.8107353851
F    6.1782946118    2.1462407016    -2.9171573929
C    5.3607290189    -3.8162035444    -2.1016162313
F    4.3260872833    -4.6539593993    -1.8265561571
F    5.9491615177    -4.2373212096    -3.2502365275
F    6.2837736926    -3.9796846775    -1.1031311175
C    5.2455360531    3.1334122701    1.8057866851
F    5.6696028794    4.4168013279    1.6899714969
F    5.1807314025    2.8552805248    3.1455521704
F    6.1975089301    2.3262037505    1.2732613454
C    0.7205731742    4.9218781489    0.4626138854
F    0.2720776346    5.1022568272    -0.8072384463
F    -0.3643616003    4.6165845517    1.2339111219
F    1.2198364092    6.1015585353    0.9045931592
H    -2.1496312958    -6.2393147584    -0.7315684459
H    -1.6945136283    -6.4304813264    3.5732289559
H    -0.1581013333    -4.3084983329    1.101154777
H    1.4193370649    -3.4607500889    3.1166584236

C N F P H 0
def2TZVP
****
Fe 0
SDD
****

Fe 0
SDD

--Link1--
%nprocs=28
%mem=128GB
%chk=M003_1_1_SPE_NoPd.chk
# PBE1PBE gen pseudo=read int=(grid=ultrafine) empiricaldispersion=GD3BJ pop=nbo guess=read geom=check

M003_1_1 title 

0 1

C N F P H 0
def2TZVP
****
Fe 0
SDD
****

Fe 0
SDD

