%nprocs=14
%mem=128GB
%chk=M003_1_1.chk
# PBEPBE gen 6D pseudo=read scf=maxcycles=500 denfit int=(grid=ultrafine) empiricaldispersion=GD3BJ opt freq=noraman

 M003_1

0 1
Fe    0.03570    -1.66240    1.73220
P    1.80590    -0.11010    -0.72990
P    -1.77600    0.16400    -0.57860
C    1.54980    -1.54140    0.43560
C    0.67100    -2.61270    0.05200
C    0.61620    -3.57150    1.10640
C    1.43890    -3.11510    2.17440
C    2.04990    -1.89270    1.74420
C    -1.46680    -0.42810    1.19050
C    -1.99450    -1.51350    1.99110
C    -1.34770    -1.54070    3.26670
C    -0.46390    -0.42580    3.31550
C    -0.53950    0.25060    2.06050
C    3.43240    -0.61750    -1.52870
C    4.21010    0.33730    -2.21970
C    5.44640    -0.00690    -2.80400
C    5.90600    -1.33530    -2.71580
C    5.14120    -2.31070    -2.04690
C    3.91260    -1.94470    -1.45730
C    2.27940    1.50130    0.11190
C    3.58060    1.74100    0.60400
C    3.93810    2.98750    1.16400
C    2.97320    4.00950    1.24640
C    1.67440    3.80160    0.74340
C    1.34480    2.55610    0.16950
C    -2.38840    1.90570    -0.23040
C    -2.90550    2.28120    1.03060
C    -3.38690    3.58500    1.26760
C    -3.34300    4.53770    0.23010
C    -2.82680    4.18910    -1.03350
C    -2.35950    2.87530    -1.25490
C    -3.37530    -0.61980    -1.16150
C    -4.64060    -0.16400    -0.72940
C    -5.83090    -0.77250    -1.18000
C    -5.75740    -1.85950    -2.07280
C    -4.50730    -2.33150    -2.51790
C    -3.32760    -1.70310    -2.06370
H    0.11130    -2.68030    -0.86920
H    0.04060    1.12260    1.81630
H    3.86150    1.35620    -2.30640
H    6.84970    -1.61110    -3.16300
H    3.35040    -2.70380    -0.93360
H    4.32860    0.96530    0.53050
H    3.24260    4.95930    1.68580
H    0.35040    2.42850    -0.22760
H    -2.95810    1.56960    1.84270
H    -3.70650    5.54070    0.40000
H    -1.98710    2.62260    -2.23610
H    -4.72210    0.65500    -0.03200
H    -6.66420    -2.33560    -2.41720
H    -2.37530    -2.06590    -2.42260
Cl    1.49240    0.17470    -4.04020
Cl    -1.69590    0.45130    -3.88630
Pd    -0.03180    0.15340    -2.27770
C    3.05790    -1.09680    2.54800
H    0.17580    -0.17150    4.14670
H    -1.51470    -2.25870    4.05630
C    -3.13200    -2.45760    1.65310
H    2.78490    -0.05620    2.37940
N    4.39670    -1.23100    1.97100
C    5.38180    -0.40200    2.66310
C    4.92150    -2.59400    1.89130
H    6.31590    -0.36150    2.10100
H    5.02420    0.61830    2.78810
H    5.60790    -0.79160    3.65750
H    5.83850    -2.60500    1.30130
H    5.16820    -3.00080    2.87090
H    4.22160    -3.27280    1.40280
C    2.86720    -1.49120    6.89640
C    3.17480    -2.61860    6.11330
C    3.23740    -2.50720    4.71090
C    2.97880    -1.27250    4.07090
C    2.69430    -0.14320    4.87210
C    2.63110    -0.25150    6.27480
H    2.82110    -1.57530    7.97280
H    3.36760    -3.56980    6.58850
H    3.48110    -3.38330    4.13000
H    2.52290    0.82110    4.41630
H    2.40650    0.61820    6.87580
N    -4.18540    -2.37150    2.66950
H    -3.58520    -2.16200    0.71540
C    -5.34280    -3.19520    2.31530
C    -4.68320    -1.00910    2.86930
H    -5.78010    -2.88720    1.36460
H    -5.08170    -4.25130    2.23870
H    -6.11700    -3.12190    3.08050
H    -5.10880    -0.59410    1.95700
H    -5.45930    -0.99340    3.63590
H    -3.89790    -0.33640    3.21550
C    -1.83810    -6.58630    1.15030
C    -2.15990    -5.80360    0.02520
C    -2.55870    -4.46280    0.19030
C    -2.63710    -3.89070    1.47860
C    -2.32190    -4.68820    2.60320
C    -1.92130    -6.02880    2.44030
H    -1.53500    -7.61610    1.02450
H    -2.82120    -3.88930    -0.68160
H    -2.42060    -4.27820    3.59810
C    -3.94380    3.93800    2.63840
F    -4.83520    3.01710    3.00490
F    -2.95140    3.95500    3.52640
F    -4.54070    5.13000    2.63560
C    -2.79000    5.21220    -2.15910
F    -3.91140    5.11220    -2.87000
F    -2.69160    6.45020    -1.67560
F    -1.74890    4.98490    -2.96070
C    -7.17830    -0.27650    -0.67820
F    -8.14060    -0.53360    -1.56360
F    -7.46460    -0.89640    0.46520
F    -7.14070    1.03790    -0.45970
C    -4.42900    -3.50690    -3.48070
F    -3.28990    -4.17790    -3.30400
F    -5.44580    -4.34460    -3.28060
F    -4.47610    -3.05460    -4.73140
C    6.26570    1.04920    -3.53040
F    7.56020    0.73100    -3.53360
F    5.84080    1.14430    -4.78860
F    6.12350    2.23450    -2.93580
C    5.65520    -3.73970    -1.94900
F    4.65980    -4.60080    -1.73710
F    6.27580    -4.08460    -3.07740
F    6.52100    -3.82590    -0.94050
C    5.34520    3.23980    1.68540
F    5.73570    4.47420    1.37090
F    5.34240    3.11370    3.01130
F    6.21730    2.37450    1.16850
C    0.61980    4.89430    0.80700
F    0.11380    5.08710    -0.40970
F    -0.35940    4.49910    1.61780
F    1.11760    6.04540    1.25590
H    -2.10700    -6.23510    -0.96470
H    -1.68950    -6.63240    3.30620
H    0.01870    -4.46870    1.12270
H    1.53770    -3.60920    3.12790

H Cl P N C F 0
6-31G(d)
****
Fe Pd 0
LANL2DZ
****

Fe Pd 0
LANL2DZ

