%nprocs=14
%mem=128GB
%chk=M003_1_4.chk
# PBEPBE gen 6D pseudo=read scf=maxcycles=500 denfit int=(grid=ultrafine) empiricaldispersion=GD3BJ opt freq=noraman

 M003_1

0 1
Fe    0.08660    -1.73450    1.74110
P    1.83700    -0.10190    -0.71370
P    -1.75720    0.12870    -0.53120
C    1.60290    -1.54450    0.44550
C    0.75340    -2.63240    0.04590
C    0.72800    -3.61230    1.08470
C    1.53850    -3.14970    2.16170
C    2.11740    -1.91370    1.74040
C    -1.44800    -0.53130    1.20880
C    -1.95380    -1.65930    1.96280
C    -1.33240    -1.70770    3.24830
C    -0.50120    -0.56020    3.34660
C    -0.55680    0.14850    2.11040
C    3.41180    -0.65090    -1.59050
C    3.78610    -2.01190    -1.65650
C    4.95800    -2.41900    -2.32820
C    5.77510    -1.45070    -2.94460
C    5.41880    -0.08900    -2.90280
C    4.23640    0.29660    -2.23720
C    2.37960    1.46830    0.16470
C    3.71410    1.68750    0.57390
C    4.10690    2.89170    1.19450
C    3.14970    3.90350    1.41010
C    1.81710    3.71710    0.99040
C    1.44920    2.50930    0.36160
C    -2.35540    1.85610    -0.09670
C    -2.91550    2.16400    1.16430
C    -3.36480    3.46530    1.46960
C    -3.24330    4.48320    0.50260
C    -2.68530    4.20150    -0.76000
C    -2.25250    2.88980    -1.05120
C    -3.35070    -0.63960    -1.14660
C    -4.61940    -0.21080    -0.69840
C    -5.80400    -0.81640    -1.16830
C    -5.72060    -1.86760    -2.10210
C    -4.46700    -2.30260    -2.57390
C    -3.29280    -1.68790    -2.08870
H    0.19490    -2.70180    -0.87590
H    0.00010    1.04670    1.90820
H    3.18130    -2.77480    -1.18760
H    6.67720    -1.75210    -3.45680
H    3.96080    1.34140    -2.23600
H    4.46610    0.92610    0.42040
H    3.44070    4.82380    1.89580
H    0.42650    2.39880    0.03600
H    -3.01830    1.40100    1.92360
H    -3.57910    5.48490    0.72780
H    -1.84400    2.69070    -2.03050
H    -4.70660    0.58020    0.02990
H    -6.62270    -2.34590    -2.45560
H    -2.33660    -2.03480    -2.45260
Cl    1.48900    0.37050    -3.99890
Cl    -1.69720    0.59160    -3.81020
Pd    -0.02000    0.22560    -2.22860
C    3.18510    -1.18330    2.53050
H    0.08810    -0.30360    4.20990
H    -1.49150    -2.45300    4.01380
C    -3.05850    -2.62090    1.57050
H    3.54110    -0.36280    1.92220
N    4.34260    -2.05310    2.76160
C    4.88980    -2.61220    1.52570
C    5.43700    -1.32980    3.41340
H    5.76140    -3.23430    1.73420
H    4.16780    -3.25760    1.02420
H    5.19230    -1.82870    0.83040
H    6.29150    -1.98820    3.57600
H    5.77400    -0.48260    2.81410
H    5.14850    -0.95220    4.39490
C    1.82700    0.51570    6.29900
C    2.00600    -0.87580    6.18020
C    2.42640    -1.42910    4.95500
C    2.66440    -0.59700    3.83700
C    2.49500    0.79890    3.96990
C    2.07450    1.35360    5.19480
H    1.50640    0.94070    7.23960
H    1.83080    -1.51810    7.03140
H    2.59720    -2.49350    4.87810
H    2.69450    1.45520    3.14020
H    1.94420    2.42200    5.29190
N    -4.12880    -2.60810    2.57300
H    -3.50660    -2.29830    0.63880
C    -5.25820    -3.44530    2.16420
C    -4.66620    -1.27020    2.82800
H    -5.69130    -3.10480    1.22270
H    -4.96700    -4.48910    2.04220
H    -6.04400    -3.42890    2.92090
H    -5.09150    -0.82520    1.93000
H    -5.45200    -1.31080    3.58360
H    -3.90430    -0.59310    3.21550
C    -1.64230    -6.68630    0.91590
C    -1.76630    -6.18840    2.22700
C    -2.20550    -4.86710    2.43920
C    -2.52030    -4.03010    1.34360
C    -2.40030    -4.54200    0.03310
C    -1.96210    -5.86350    -0.18090
H    -1.30940    -7.70130    0.75220
H    -2.33280    -4.50190    3.44840
H    -2.66270    -3.93780    -0.81840
C    -3.96480    3.75270    2.83770
F    -2.98800    3.82210    3.74010
F    -4.63910    4.90270    2.84150
F    -4.80050    2.77140    3.17850
C    -2.56340    5.29470    -1.81120
F    -3.64250    5.26710    -2.59060
F    -2.46850    6.49670    -1.24360
F    -1.48150    5.09350    -2.56460
C    -7.15720    -0.36120    -0.64360
F    -7.12750    0.93260    -0.32420
F    -8.10770    -0.55210    -1.55790
F    -7.45480    -1.06850    0.44490
C    -4.37740    -3.45010    -3.56830
F    -4.32160    -4.59630    -2.89290
F    -5.44200    -3.46790    -4.36940
F    -3.27990    -3.34020    -4.31680
C    5.34180    -3.89080    -2.36240
F    6.17070    -4.14880    -3.37410
F    5.94720    -4.20580    -1.21860
F    4.25560    -4.65040    -2.50190
C    6.29230    0.95560    -3.58150
F    5.89480    1.10610    -4.84310
F    6.19280    2.12780    -2.95340
F    7.57060    0.57820    -3.57120
C    5.54740    3.06390    1.64970
F    6.37620    2.61180    0.70940
F    5.83320    4.34170    1.89710
F    5.72920    2.35370    2.76150
C    0.76170    4.79030    1.20370
F    1.25330    5.85940    1.82770
F    0.27400    5.16150    0.02170
F    -0.23050    4.28120    1.93170
H    -1.53470    -6.82290    3.07060
H    -1.87940    -6.25090    -1.18660
H    0.15990    -4.52840    1.08480
H    1.69360    -3.64330    3.11000

H Cl P N C F 0
6-31G(d)
****
Fe Pd 0
LANL2DZ
****

Fe Pd 0
LANL2DZ

