%nprocs=16
%mem=18GB
%chk=R-pTol-SDP_1.chk
# PBEPBE gen 6D pseudo=read scf=maxcycles=500 denfit int=(grid=ultrafine) empiricaldispersion=GD3BJ opt freq=noraman

title 

0 1
Pd    -0.59820    3.00840    -0.17400
P    0.75170    1.02270    -0.22010
C    1.59730    0.55150    -1.84360
C    1.52350    -0.75540    -2.37900
C    2.19480    -1.09230    -3.57010
C    2.97300    -0.12880    -4.23950
C    3.08700    1.16580    -3.69820
C    2.41310    1.49400    -2.50650
H    2.52950    2.48540    -2.09410
H    3.69560    1.91170    -4.18870
C    3.69870    -0.48680    -5.51960
H    3.78160    0.38110    -6.17440
H    3.16750    -1.26830    -6.06360
H    4.70320    -0.84540    -5.29440
H    2.11580    -2.09650    -3.96080
H    0.96110    -1.52370    -1.87090
C    2.35630    1.06230    0.74300
C    3.24960    -0.02990    0.72120
C    4.48350    0.03170    1.39650
C    4.84980    1.20180    2.08970
C    3.97890    2.30870    2.09180
C    2.74540    2.23910    1.41600
H    2.09160    3.09720    1.42650
H    4.24780    3.21290    2.61810
C    6.16940    1.27150    2.82870
H    6.59010    2.27600    2.77530
H    6.89540    0.57960    2.40080
H    6.02440    1.01380    3.87800
H    5.14660    -0.82060    1.37250
H    2.99040    -0.92190    0.17010
C    -0.48600    -0.33870    0.12030
C    -0.81920    -0.92580    1.36890
C    -1.92990    -1.77470    1.46990
C    -2.74300    -2.09080    0.37190
C    -2.43260    -1.51150    -0.86810
C    -1.33470    -0.63470    -0.97690
H    -1.15360    -0.16360    -1.93290
H    -3.05100    -1.71540    -1.73010
H    -3.59640    -2.74390    0.48100
C    -2.15790    -2.27360    2.86590
H    -3.19080    -2.12430    3.18200
C    -1.16930    -1.44880    3.70050
H    -0.74590    -2.00050    4.54010
H    -1.72100    -0.63170    4.15200
C    -0.11900    -0.85640    2.72070
C    0.46620    0.43550    3.30680
C    1.59870    0.07690    4.05630
C    2.29080    0.98330    4.86810
C    1.82730    2.30400    4.91710
C    0.73540    2.69720    4.11870
C    0.03740    1.80270    3.26050
P    -1.27130    2.59910    2.11740
C    -2.87800    1.65490    2.28020
C    -3.65000    1.39540    1.12930
C    -4.86550    0.69040    1.22260
C    -5.32840    0.24150    2.47520
C    -4.56900    0.50560    3.63200
C    -3.35310    1.20830    3.53040
H    -2.77510    1.41100    4.42080
H    -4.91160    0.16960    4.59990
C    -6.63060    -0.52460    2.57430
H    -6.45470    -1.58670    2.40300
H    -7.08170    -0.40430    3.55960
H    -7.34600    -0.16960    1.83190
H    -5.43600    0.49300    0.32670
H    -3.30790    1.73130    0.16190
C    -1.66210    4.25210    2.95760
C    -2.78390    4.46460    3.79150
C    -3.02210    5.72010    4.38360
C    -2.14310    6.79400    4.14760
C    -1.02960    6.60390    3.30850
C    -0.79810    5.34630    2.72000
H    0.05900    5.22090    2.07540
H    -0.35260    7.42160    3.10680
C    -2.40350    8.14660    4.77710
H    -3.02410    8.75370    4.11770
H    -2.91880    8.03920    5.73200
H    -1.46920    8.67910    4.95710
H    -3.88940    5.85430    5.01370
H    -3.49190    3.67740    3.98510
Cl    -1.99370    4.87760    -0.25040
H    0.46760    3.73630    4.18060
H    2.32980    3.02930    5.54000
H    3.15450    0.67550    5.43880
C    1.99340    -1.36210    3.88070
H    3.04830    -1.46110    3.62320
C    1.07330    -1.84210    2.75170
H    0.79050    -2.89220    2.83050
H    1.61620    -1.75210    1.81500
H    1.80420    -1.90390    4.80760
H    -1.92470    -3.33760    2.91070
Cl    -0.06920    3.47400    -2.39570

C Cl H P 0
6-31G(d)
****
Pd 0
LANL2DZ
****

Pd 0
LANL2DZ

