%NProcShared=40
%mem=18GB
%chk=R-pTol-SDP_1_SPE_NoPd.chk
# PBE1PBE/def2TZVP int=(grid=ultrafine) empiricaldispersion=GD3BJ nmr=giao 

 title 

0 1
P    0.7105750902    1.078592882    -0.3038341716
C    1.533052937    0.6156795299    -1.879802598
C    1.611894868    -0.7211420967    -2.3100030199
C    2.3937602753    -1.0573192854    -3.4237956636
C    3.1125679628    -0.078082912    -4.1300500651
C    3.0339160196    1.2557630255    -3.6815356377
C    2.2564482987    1.6049205568    -2.5754103929
H    2.191220795    2.6486023274    -2.2577746738
H    3.5840589976    2.0373396823    -4.2179683081
C    3.9296816251    -0.4356446167    -5.3483103479
H    3.409185137    -0.1358771898    -6.2767773498
H    4.1151841312    -1.5207923607    -5.4083848109
H    4.9052933409    0.0806682194    -5.3460589853
H    2.4431274764    -2.1027755598    -3.7499070625
H    1.0591488481    -1.5038851368    -1.7816105308
C    2.1998798323    1.1261243205    0.7696850668
C    3.1589604091    0.0945342784    0.7559246656
C    4.3299348816    0.2131733401    1.5108128438
C    4.5928018396    1.3718221089    2.2673539647
C    3.6614099469    2.424953123    2.215731174
C    2.4805248917    2.3079632718    1.4771878691
H    1.7622179837    3.1335368678    1.4415738684
H    3.8581878421    3.3474718089    2.7730206987
C    5.8309180485    1.4789929161    3.1231674911
H    6.2563391167    2.4965772848    3.0966658922
H    6.6119034318    0.7700664896    2.8023841621
H    5.5946030203    1.2553456155    4.1810355569
H    5.0645650305    -0.6004534149    1.4992584745
H    3.0039338123    -0.7892806998    0.1288394273
C    -0.494328636    -0.2877214365    -0.002392618
C    -0.8493463616    -0.899085673    1.2179226552
C    -1.961826449    -1.7738704232    1.257764215
C    -2.7437013219    -2.0174932195    0.1277297129
C    -2.4216436224    -1.3711660771    -1.07431482
C    -1.319780978    -0.5144359095    -1.1361305639
H    -1.1092539047    0.02178325    -2.067512233
H    -3.0383207589    -1.5180178612    -1.9665646937
H    -3.6099581862    -2.6853765404    0.1888145511
C    -2.1488975834    -2.3689993654    2.6341764468
H    -3.2055417965    -2.357583164    2.9544718923
C    -1.2597915375    -1.4852906889    3.5279682169
H    -0.7977088498    -2.0315203141    4.3669974617
H    -1.8617478925    -0.6706089639    3.9524794131
C    -0.1643979201    -0.8830614608    2.5788471929
C    0.3970532277    0.3885599895    3.2308744568
C    1.505575842    0.0114392406    4.0270689222
C    2.1240820188    0.9049169897    4.9050052743
C    1.6309581567    2.2098766394    4.9965984153
C    0.5686140162    2.6141028915    4.180961505
C    -0.0689726339    1.7320534952    3.2744153082
P    -1.2925932247    2.5150143326    2.0972803299
C    -2.8547309614    1.5958387388    2.3511155523
C    -3.6677744788    1.2799634635    1.2474047151
C    -4.8588106583    0.5729331356    1.4355009624
C    -5.2819192461    0.1788966588    2.7195502463
C    -4.4671349806    0.5085784949    3.819333396
C    -3.2641343576    1.2034394145    3.6410564906
H    -2.6299622521    1.4237204969    4.5072918892
H    -4.77367459    0.2076907092    4.8279341896
C    -6.5826985087    -0.5641090671    2.9100643097
H    -6.7335632624    -1.3207307517    2.1209165918
H    -6.6214194988    -1.0730350486    3.8874177347
H    -7.4447726685    0.1267518932    2.8620934407
H    -5.4730090609    0.3197361523    0.564029396
H    -3.359581771    1.594130765    0.2462515023
C    -1.5347558274    4.1841429115    2.831192974
C    -2.4618623601    4.4484621519    3.8515716879
C    -2.546948235    5.7308529784    4.4099054012
C    -1.7129604    6.7745302174    3.9733369333
C    -0.7869704328    6.4985501221    2.9472815426
C    -0.7047462451    5.2280827843    2.3747033453
H    -0.0160104143    5.0419796621    1.5429096809
H    -0.1377183918    7.2998155206    2.5760416259
C    -1.8297806101    8.1627546769    4.5554255869
H    -2.404640995    8.8258743463    3.8826398185
H    -2.3467493833    8.1522678547    5.5292099206
H    -0.8387717258    8.6277224811    4.6962725732
H    -3.2843877125    5.9257700897    5.1972329138
H    -3.1374336891    3.6635488232    4.2018662898
H    0.2353584617    3.6518076062    4.2393556688
H    2.086671646    2.930328776    5.6835994423
H    2.9810198323    0.5829347128    5.5078135752
C    1.8894433071    -1.4361306922    3.8132019558
H    2.9762194548    -1.5532667545    3.6546872209
C    1.0669997395    -1.8425859039    2.5769075948
H    0.7468261204    -2.8979901136    2.5852483252
H    1.6552913022    -1.6791969511    1.6615715596
H    1.6265487015    -2.0464456058    4.6988629373
H    -1.8195187025    -3.4265978877    2.6454580072

--Link1--
%NProcShared=40
%mem=18GB
%chk=R-pTol-SDP_1_SPE_NoPd.chk
# PBE1PBE/def2TZVP int=(grid=ultrafine) empiricaldispersion=GD3BJ pop=nbo guess=read geom=check

 title 

0 1

