R-pTol-SDP
                    3D
 Structure written by MMmdl.
 92 98  0  0  1  0            999 V2000
   -0.5982    3.0084   -0.1740 Pd  0  0  0  0  0  0
    0.7517    1.0227   -0.2201 P   0  0  0  0  0  0
    1.5973    0.5515   -1.8436 C   0  0  0  0  0  0
    1.5235   -0.7554   -2.3790 C   0  0  0  0  0  0
    2.1948   -1.0923   -3.5701 C   0  0  0  0  0  0
    2.9730   -0.1288   -4.2395 C   0  0  0  0  0  0
    3.0870    1.1658   -3.6982 C   0  0  0  0  0  0
    2.4131    1.4940   -2.5065 C   0  0  0  0  0  0
    2.5295    2.4854   -2.0941 H   0  0  0  0  0  0
    3.6956    1.9117   -4.1887 H   0  0  0  0  0  0
    3.6987   -0.4868   -5.5196 C   0  0  0  0  0  0
    3.7816    0.3811   -6.1744 H   0  0  0  0  0  0
    3.1675   -1.2683   -6.0636 H   0  0  0  0  0  0
    4.7032   -0.8454   -5.2944 H   0  0  0  0  0  0
    2.1158   -2.0965   -3.9608 H   0  0  0  0  0  0
    0.9611   -1.5237   -1.8709 H   0  0  0  0  0  0
    2.3563    1.0623    0.7430 C   0  0  0  0  0  0
    3.2496   -0.0299    0.7212 C   0  0  0  0  0  0
    4.4835    0.0317    1.3965 C   0  0  0  0  0  0
    4.8498    1.2018    2.0897 C   0  0  0  0  0  0
    3.9789    2.3087    2.0918 C   0  0  0  0  0  0
    2.7454    2.2391    1.4160 C   0  0  0  0  0  0
    2.0916    3.0972    1.4265 H   0  0  0  0  0  0
    4.2478    3.2129    2.6181 H   0  0  0  0  0  0
    6.1694    1.2715    2.8287 C   0  0  0  0  0  0
    6.5901    2.2760    2.7753 H   0  0  0  0  0  0
    6.8954    0.5796    2.4008 H   0  0  0  0  0  0
    6.0244    1.0138    3.8780 H   0  0  0  0  0  0
    5.1466   -0.8206    1.3725 H   0  0  0  0  0  0
    2.9904   -0.9219    0.1701 H   0  0  0  0  0  0
   -0.4860   -0.3387    0.1203 C   0  0  0  0  0  0
   -0.8192   -0.9258    1.3689 C   0  0  0  0  0  0
   -1.9299   -1.7747    1.4699 C   0  0  0  0  0  0
   -2.7430   -2.0908    0.3719 C   0  0  0  0  0  0
   -2.4326   -1.5115   -0.8681 C   0  0  0  0  0  0
   -1.3347   -0.6347   -0.9769 C   0  0  0  0  0  0
   -1.1536   -0.1636   -1.9329 H   0  0  0  0  0  0
   -3.0510   -1.7154   -1.7301 H   0  0  0  0  0  0
   -3.5964   -2.7439    0.4810 H   0  0  0  0  0  0
   -2.1579   -2.2736    2.8659 C   0  0  0  0  0  0
   -3.1908   -2.1243    3.1820 H   0  0  0  0  0  0
   -1.1693   -1.4488    3.7005 C   0  0  0  0  0  0
   -0.7459   -2.0005    4.5401 H   0  0  0  0  0  0
   -1.7210   -0.6317    4.1520 H   0  0  0  0  0  0
   -0.1190   -0.8564    2.7207 C   0  0  0  0  0  0
    0.4662    0.4355    3.3068 C   0  0  0  0  0  0
    1.5987    0.0769    4.0563 C   0  0  0  0  0  0
    2.2908    0.9833    4.8681 C   0  0  0  0  0  0
    1.8273    2.3040    4.9171 C   0  0  0  0  0  0
    0.7354    2.6972    4.1187 C   0  0  0  0  0  0
    0.0374    1.8027    3.2605 C   0  0  0  0  0  0
   -1.2713    2.5991    2.1174 P   0  0  0  0  0  0
   -2.8780    1.6549    2.2802 C   0  0  0  0  0  0
   -3.6500    1.3954    1.1293 C   0  0  0  0  0  0
   -4.8655    0.6904    1.2226 C   0  0  0  0  0  0
   -5.3284    0.2415    2.4752 C   0  0  0  0  0  0
   -4.5690    0.5056    3.6320 C   0  0  0  0  0  0
   -3.3531    1.2083    3.5304 C   0  0  0  0  0  0
   -2.7751    1.4110    4.4208 H   0  0  0  0  0  0
   -4.9116    0.1696    4.5999 H   0  0  0  0  0  0
   -6.6306   -0.5246    2.5743 C   0  0  0  0  0  0
   -6.4547   -1.5867    2.4030 H   0  0  0  0  0  0
   -7.0817   -0.4043    3.5596 H   0  0  0  0  0  0
   -7.3460   -0.1696    1.8319 H   0  0  0  0  0  0
   -5.4360    0.4930    0.3267 H   0  0  0  0  0  0
   -3.3079    1.7313    0.1619 H   0  0  0  0  0  0
   -1.6621    4.2521    2.9576 C   0  0  0  0  0  0
   -2.7839    4.4646    3.7915 C   0  0  0  0  0  0
   -3.0221    5.7201    4.3836 C   0  0  0  0  0  0
   -2.1431    6.7940    4.1476 C   0  0  0  0  0  0
   -1.0296    6.6039    3.3085 C   0  0  0  0  0  0
   -0.7981    5.3463    2.7200 C   0  0  0  0  0  0
    0.0590    5.2209    2.0754 H   0  0  0  0  0  0
   -0.3526    7.4216    3.1068 H   0  0  0  0  0  0
   -2.4035    8.1466    4.7771 C   0  0  0  0  0  0
   -3.0241    8.7537    4.1177 H   0  0  0  0  0  0
   -2.9188    8.0392    5.7320 H   0  0  0  0  0  0
   -1.4692    8.6791    4.9571 H   0  0  0  0  0  0
   -3.8894    5.8543    5.0137 H   0  0  0  0  0  0
   -3.4919    3.6774    3.9851 H   0  0  0  0  0  0
   -1.9937    4.8776   -0.2504 Cl  0  0  0  0  0  0
    0.4676    3.7363    4.1806 H   0  0  0  0  0  0
    2.3298    3.0293    5.5400 H   0  0  0  0  0  0
    3.1545    0.6755    5.4388 H   0  0  0  0  0  0
    1.9934   -1.3621    3.8807 C   0  0  0  0  0  0
    3.0483   -1.4611    3.6232 H   0  0  0  0  0  0
    1.0733   -1.8421    2.7517 C   0  0  0  0  0  0
    0.7905   -2.8922    2.8305 H   0  0  0  0  0  0
    1.6162   -1.7521    1.8150 H   0  0  0  0  0  0
    1.8042   -1.9039    4.8076 H   0  0  0  0  0  0
   -1.9247   -3.3376    2.9107 H   0  0  0  0  0  0
   -0.0692    3.4740   -2.3957 Cl  0  0  0  0  0  0
  1 81  1  0  0  0
  1 92  1  0  0  0
  2 31  1  0  0  0
  2 17  1  0  0  0
  2  3  1  0  0  0
  3  4  1  0  0  0
  3  8  2  0  0  0
  4 16  1  0  0  0
  4  5  2  0  0  0
  5 15  1  0  0  0
  5  6  1  0  0  0
  6  7  2  0  0  0
  6 11  1  0  0  0
  7  8  1  0  0  0
  7 10  1  0  0  0
  8  9  1  0  0  0
 11 13  1  0  0  0
 11 12  1  0  0  0
 11 14  1  0  0  0
 17 18  1  0  0  0
 17 22  2  0  0  0
 18 30  1  0  0  0
 18 19  2  0  0  0
 19 29  1  0  0  0
 19 20  1  0  0  0
 20 25  1  0  0  0
 20 21  2  0  0  0
 21 22  1  0  0  0
 21 24  1  0  0  0
 22 23  1  0  0  0
 25 27  1  0  0  0
 25 28  1  0  0  0
 25 26  1  0  0  0
 31 32  1  0  0  0
 31 36  2  0  0  0
 32 33  2  0  0  0
 32 45  1  0  0  0
 33 40  1  0  0  0
 33 34  1  0  0  0
 34 39  1  0  0  0
 34 35  2  0  0  0
 35 36  1  0  0  0
 35 38  1  0  0  0
 36 37  1  0  0  0
 40 42  1  0  0  0
 40 91  1  0  0  0
 40 41  1  0  0  0
 42 43  1  0  0  0
 42 44  1  0  0  0
 42 45  1  0  0  0
 45 87  1  0  0  0
 45 46  1  0  0  0
 46 47  1  0  0  0
 46 51  2  0  0  0
 47 48  2  0  0  0
 47 85  1  0  0  0
 48 84  1  0  0  0
 48 49  1  0  0  0
 49 83  1  0  0  0
 49 50  2  0  0  0
 50 51  1  0  0  0
 50 82  1  0  0  0
 51 52  1  0  0  0
 52 53  1  0  0  0
 52 67  1  0  0  0
 53 54  1  0  0  0
 53 58  2  0  0  0
 54 55  2  0  0  0
 54 66  1  0  0  0
 55 65  1  0  0  0
 55 56  1  0  0  0
 56 61  1  0  0  0
 56 57  2  0  0  0
 57 58  1  0  0  0
 57 60  1  0  0  0
 58 59  1  0  0  0
 61 63  1  0  0  0
 61 62  1  0  0  0
 61 64  1  0  0  0
 67 68  1  0  0  0
 67 72  2  0  0  0
 68 80  1  0  0  0
 68 69  2  0  0  0
 69 79  1  0  0  0
 69 70  1  0  0  0
 70 71  2  0  0  0
 70 75  1  0  0  0
 71 72  1  0  0  0
 71 74  1  0  0  0
 72 73  1  0  0  0
 75 78  1  0  0  0
 75 77  1  0  0  0
 75 76  1  0  0  0
 85 86  1  0  0  0
 85 90  1  0  0  0
 85 87  1  0  0  0
 87 88  1  0  0  0
 87 89  1  0  0  0
M  END
> <s_m_entry_id>
602

> <s_m_entry_name>
R_p_tol_SDP_1.1

> <program>
Gaussian 09, Revision E.01

> <chiral flag>
0

> <version>
0

> <s_m_Source_Path>
/home/sigmangrp/Dropbox/Current Group People/Jordan_D/OPT_10_26_21

> <s_m_Source_File>
R_p_tol_SDP_1.log

> <i_m_Source_File_Index>
1

> <s_m_job_name>
mmod_csearch_2382

> <r_mmod_Potential_Energy-OPLS-2005>
357.4365234375

> <b_mmod_Minimization_Converged-OPLS-2005>
1

> <r_mmod_RMS_Derivative-OPLS-2005>
0.000822857080493122

> <i_mmod_Times_Found-OPLS-2005>
553

> <r_mmod_Relative_Potential_Energy-OPLS-2005>
0

> <i_mmod_Conformation-OPLS-2005>
1

> <i_mmod_Serial_Number-OPLS-2005>
8

> <s_m_subgroup_title>
mmod_csearch_2382-out1

> <s_m_subgroupid>
mmod_csearch_2382-out1

> <b_m_subgroup_collapsed>
0

$$$$
