R-pTol-SDP
                    3D
 Structure written by MMmdl.
 92 98  0  0  1  0            999 V2000
   -0.1642    3.2541   -0.0943 Pd  0  0  0  0  0  0
    0.8290    1.0479   -0.2083 P   0  0  0  0  0  0
    1.5944    0.4774   -1.8510 C   0  0  0  0  0  0
    1.3605   -0.8067   -2.3989 C   0  0  0  0  0  0
    1.9749   -1.2147   -3.5986 C   0  0  0  0  0  0
    2.8646   -0.3525   -4.2658 C   0  0  0  0  0  0
    3.1504    0.9077   -3.7092 C   0  0  0  0  0  0
    2.5311    1.3055   -2.5092 C   0  0  0  0  0  0
    2.7958    2.2607   -2.0817 H   0  0  0  0  0  0
    3.8529    1.5721   -4.1913 H   0  0  0  0  0  0
    3.5311   -0.7874   -5.5542 C   0  0  0  0  0  0
    3.7275    0.0703   -6.1982 H   0  0  0  0  0  0
    2.8978   -1.4832   -6.1052 H   0  0  0  0  0  0
    4.4792   -1.2804   -5.3389 H   0  0  0  0  0  0
    1.7694   -2.1985   -3.9950 H   0  0  0  0  0  0
    0.7243   -1.5151   -1.8933 H   0  0  0  0  0  0
    2.4835    0.8632    0.6490 C   0  0  0  0  0  0
    3.1837   -0.3618    0.6371 C   0  0  0  0  0  0
    4.4582   -0.4724    1.2250 C   0  0  0  0  0  0
    5.0601    0.6538    1.8192 C   0  0  0  0  0  0
    4.3848    1.8897    1.8053 C   0  0  0  0  0  0
    3.1080    1.9914    1.2195 C   0  0  0  0  0  0
    2.6066    2.9468    1.2134 H   0  0  0  0  0  0
    4.8388    2.7644    2.2475 H   0  0  0  0  0  0
    6.4299    0.5420    2.4543 C   0  0  0  0  0  0
    6.5184    1.2180    3.3051 H   0  0  0  0  0  0
    7.2021    0.7980    1.7286 H   0  0  0  0  0  0
    6.6140   -0.4721    2.8098 H   0  0  0  0  0  0
    4.9723   -1.4223    1.2072 H   0  0  0  0  0  0
    2.7419   -1.2241    0.1598 H   0  0  0  0  0  0
   -0.4686   -0.2383    0.2573 C   0  0  0  0  0  0
   -0.7771   -0.7628    1.5473 C   0  0  0  0  0  0
   -1.9064   -1.5765    1.7198 C   0  0  0  0  0  0
   -2.7417   -1.9498    0.6575 C   0  0  0  0  0  0
   -2.4518   -1.4448   -0.6190 C   0  0  0  0  0  0
   -1.3543   -0.5791   -0.7977 C   0  0  0  0  0  0
   -1.1985   -0.1578   -1.7805 H   0  0  0  0  0  0
   -3.0934   -1.6862   -1.4537 H   0  0  0  0  0  0
   -3.6062   -2.5760    0.8227 H   0  0  0  0  0  0
   -2.1435   -1.9500    3.1549 C   0  0  0  0  0  0
   -3.1768   -1.7689    3.4525 H   0  0  0  0  0  0
   -1.1548   -1.0566    3.9171 C   0  0  0  0  0  0
   -0.7679   -1.5104    4.8298 H   0  0  0  0  0  0
   -1.6889   -0.1685    4.2400 H   0  0  0  0  0  0
   -0.0687   -0.6291    2.8975 C   0  0  0  0  0  0
    0.6121    0.6629    3.3556 C   0  0  0  0  0  0
    1.7684    0.3225    4.0729 C   0  0  0  0  0  0
    2.5906    1.2792    4.6848 C   0  0  0  0  0  0
    2.2568    2.6332    4.5296 C   0  0  0  0  0  0
    1.1306    2.9940    3.7632 C   0  0  0  0  0  0
    0.2614    2.0345    3.1824 C   0  0  0  0  0  0
   -1.0885    2.7722    2.0921 P   0  0  0  0  0  0
   -2.7161    1.8463    2.0923 C   0  0  0  0  0  0
   -3.3785    1.5262    3.2964 C   0  0  0  0  0  0
   -4.6352    0.8915    3.2842 C   0  0  0  0  0  0
   -5.2574    0.5843    2.0585 C   0  0  0  0  0  0
   -4.6208    0.9314    0.8510 C   0  0  0  0  0  0
   -3.3615    1.5619    0.8714 C   0  0  0  0  0  0
   -2.8899    1.8251   -0.0628 H   0  0  0  0  0  0
   -5.0910    0.7119   -0.0963 H   0  0  0  0  0  0
   -6.6082   -0.0991    2.0377 C   0  0  0  0  0  0
   -7.4044    0.6443    1.9932 H   0  0  0  0  0  0
   -6.6979   -0.7529    1.1697 H   0  0  0  0  0  0
   -6.7528   -0.7056    2.9321 H   0  0  0  0  0  0
   -5.1203    0.6524    4.2193 H   0  0  0  0  0  0
   -2.9217    1.7823    4.2410 H   0  0  0  0  0  0
   -1.8730    4.1913    3.0825 C   0  0  0  0  0  0
   -1.6115    4.4004    4.4579 C   0  0  0  0  0  0
   -2.2401    5.4372    5.1742 C   0  0  0  0  0  0
   -3.1717    6.2749    4.5336 C   0  0  0  0  0  0
   -3.4844    6.0496    3.1804 C   0  0  0  0  0  0
   -2.8505    5.0100    2.4738 C   0  0  0  0  0  0
   -3.1357    4.8322    1.4480 H   0  0  0  0  0  0
   -4.2186    6.6635    2.6790 H   0  0  0  0  0  0
   -3.8536    7.3890    5.2998 C   0  0  0  0  0  0
   -4.7804    7.0264    5.7448 H   0  0  0  0  0  0
   -3.2115    7.7634    6.0975 H   0  0  0  0  0  0
   -4.0919    8.2241    4.6404 H   0  0  0  0  0  0
   -2.0128    5.5757    6.2213 H   0  0  0  0  0  0
   -0.9420    3.7503    4.9976 H   0  0  0  0  0  0
   -0.9892    5.4321   -0.0273 Cl  0  0  0  0  0  0
    0.9395    4.0466    3.6111 H   0  0  0  0  0  0
    2.8859    3.3974    4.9619 H   0  0  0  0  0  0
    3.4769    0.9857    5.2280 H   0  0  0  0  0  0
    2.0497   -1.1525    4.0611 C   0  0  0  0  0  0
    3.0839   -1.3628    3.7866 H   0  0  0  0  0  0
    1.0531   -1.6908    3.0249 C   0  0  0  0  0  0
    0.7013   -2.7004    3.2384 H   0  0  0  0  0  0
    1.5682   -1.7597    2.0719 H   0  0  0  0  0  0
    1.8561   -1.5641    5.0518 H   0  0  0  0  0  0
   -1.9153   -3.0068    3.2945 H   0  0  0  0  0  0
    0.5920    3.7682   -2.2374 Cl  0  0  0  0  0  0
  1 81  1  0  0  0
  1 92  1  0  0  0
  2 31  1  0  0  0
  2 17  1  0  0  0
  2  3  1  0  0  0
  3  4  1  0  0  0
  3  8  2  0  0  0
  4 16  1  0  0  0
  4  5  2  0  0  0
  5 15  1  0  0  0
  5  6  1  0  0  0
  6  7  2  0  0  0
  6 11  1  0  0  0
  7  8  1  0  0  0
  7 10  1  0  0  0
  8  9  1  0  0  0
 11 13  1  0  0  0
 11 12  1  0  0  0
 11 14  1  0  0  0
 17 18  1  0  0  0
 17 22  2  0  0  0
 18 30  1  0  0  0
 18 19  2  0  0  0
 19 29  1  0  0  0
 19 20  1  0  0  0
 20 25  1  0  0  0
 20 21  2  0  0  0
 21 22  1  0  0  0
 21 24  1  0  0  0
 22 23  1  0  0  0
 25 27  1  0  0  0
 25 28  1  0  0  0
 25 26  1  0  0  0
 31 32  1  0  0  0
 31 36  2  0  0  0
 32 33  2  0  0  0
 32 45  1  0  0  0
 33 40  1  0  0  0
 33 34  1  0  0  0
 34 39  1  0  0  0
 34 35  2  0  0  0
 35 36  1  0  0  0
 35 38  1  0  0  0
 36 37  1  0  0  0
 40 42  1  0  0  0
 40 91  1  0  0  0
 40 41  1  0  0  0
 42 43  1  0  0  0
 42 44  1  0  0  0
 42 45  1  0  0  0
 45 87  1  0  0  0
 45 46  1  0  0  0
 46 47  1  0  0  0
 46 51  2  0  0  0
 47 48  2  0  0  0
 47 85  1  0  0  0
 48 84  1  0  0  0
 48 49  1  0  0  0
 49 83  1  0  0  0
 49 50  2  0  0  0
 50 51  1  0  0  0
 50 82  1  0  0  0
 51 52  1  0  0  0
 52 53  1  0  0  0
 52 67  1  0  0  0
 53 54  1  0  0  0
 53 58  2  0  0  0
 54 55  2  0  0  0
 54 66  1  0  0  0
 55 65  1  0  0  0
 55 56  1  0  0  0
 56 61  1  0  0  0
 56 57  2  0  0  0
 57 58  1  0  0  0
 57 60  1  0  0  0
 58 59  1  0  0  0
 61 63  1  0  0  0
 61 62  1  0  0  0
 61 64  1  0  0  0
 67 68  1  0  0  0
 67 72  2  0  0  0
 68 80  1  0  0  0
 68 69  2  0  0  0
 69 79  1  0  0  0
 69 70  1  0  0  0
 70 71  2  0  0  0
 70 75  1  0  0  0
 71 72  1  0  0  0
 71 74  1  0  0  0
 72 73  1  0  0  0
 75 78  1  0  0  0
 75 77  1  0  0  0
 75 76  1  0  0  0
 85 86  1  0  0  0
 85 90  1  0  0  0
 85 87  1  0  0  0
 87 88  1  0  0  0
 87 89  1  0  0  0
M  END
> <s_m_entry_id>
603

> <s_m_entry_name>
R_p_tol_SDP_1.1

> <program>
Gaussian 09, Revision E.01

> <chiral flag>
0

> <version>
0

> <s_m_Source_Path>
/home/sigmangrp/Dropbox/Current Group People/Jordan_D/OPT_10_26_21

> <s_m_Source_File>
R_p_tol_SDP_1.log

> <i_m_Source_File_Index>
1

> <s_m_job_name>
mmod_csearch_2382

> <r_mmod_Potential_Energy-OPLS-2005>
362.363983154297

> <b_mmod_Minimization_Converged-OPLS-2005>
1

> <r_mmod_RMS_Derivative-OPLS-2005>
0.000587409711442888

> <i_mmod_Times_Found-OPLS-2005>
414

> <r_mmod_Relative_Potential_Energy-OPLS-2005>
4.92745971679688

> <i_mmod_Conformation-OPLS-2005>
2

> <i_mmod_Serial_Number-OPLS-2005>
8

> <s_m_subgroup_title>
mmod_csearch_2382-out1

> <s_m_subgroupid>
mmod_csearch_2382-out1

> <b_m_subgroup_collapsed>
0

$$$$
