%nprocs=14
%mem=128GB
%chk=RR_DIOP_2.chk
# PBEPBE gen 6D pseudo=read scf=maxcycles=500 denfit int=(grid=ultrafine) empiricaldispersion=GD3BJ opt freq=noraman

 RR_DIOP

0 1
P    1.30080    4.52980    -0.06440
P    -0.49230    3.07230    -2.69350
O    -0.61040    1.23890    1.34140
O    -0.37610    0.15400    -0.63050
C    0.68230    3.22170    1.07590
C    -0.20120    2.18330    0.37570
C    0.48490    1.27380    -0.65350
C    0.66920    1.76030    -2.10900
C    -0.88790    0.06810    0.65540
C    -0.19950    -1.09090    1.38040
C    -2.40670    -0.10160    0.57160
C    1.85050    5.82320    1.18080
C    0.93110    6.32190    2.13000
C    1.32100    7.29100    3.07440
C    2.64070    7.77780    3.07900
C    3.56480    7.29680    2.13370
C    3.17020    6.32850    1.19020
C    2.92160    3.92400    -0.77430
C    3.27480    4.31450    -2.08340
C    4.47560    3.86860    -2.66730
C    5.34380    3.03470    -1.93910
C    5.01120    2.65540    -0.62540
C    3.80760    3.10070    -0.04550
C    -2.20670    2.31230    -2.59600
C    -2.42450    0.93400    -2.81630
C    -3.71830    0.38390    -2.73740
C    -4.81500    1.20750    -2.42570
C    -4.61130    2.57960    -2.19230
C    -3.31540    3.12440    -2.27590
C    -0.04670    3.06680    -4.51050
C    0.63880    4.17720    -5.04740
C    1.00800    4.20960    -6.40590
C    0.69520    3.12500    -7.24550
C    0.01180    2.01200    -6.72230
C    -0.35570    1.98470    -5.36300
H    1.50520    2.71980    1.58030
H    0.09680    3.67680    1.87340
H    -1.10150    2.64860    -0.02430
H    1.44910    0.94230    -0.26340
H    0.62600    0.89950    -2.77540
H    1.68480    2.12450    -2.23290
H    0.87630    -0.92130    1.42150
H    -0.58190    -1.17290    2.39790
H    -0.38990    -2.02530    0.85210
H    -2.82870    -0.18740    1.57280
H    -2.85330    0.76110    0.07760
H    -2.65140    -0.99830    0.00230
H    -0.09100    5.97380    2.13120
H    0.60470    7.66640    3.79080
H    2.94130    8.52400    3.80020
H    4.57720    7.67370    2.12780
H    3.89760    5.98390    0.47040
H    2.62160    4.96040    -2.65120
H    4.73210    4.16930    -3.67320
H    6.26790    2.69440    -2.38410
H    5.68350    2.02680    -0.05910
H    3.58460    2.81340    0.97040
H    -1.59590    0.27890    -3.03700
H    -3.86680    -0.67220    -2.91000
H    -5.80880    0.78830    -2.36430
H    -5.44990    3.21740    -1.95280
H    -3.18390    4.17940    -2.09400
H    0.87890    5.02160    -4.41930
H    1.52600    5.06970    -6.80500
H    0.97370    3.14890    -8.28920
H    -0.23490    1.17890    -7.36450
H    -0.88090    1.12220    -4.98620
Cl    -1.75310    6.09560    -3.34270
Cl    -0.13540    7.45120    -0.89630
Pd    -0.27520    5.27790    -1.73040

H Cl P C O 0
6-31G(d)
****
Pd 0
LANL2DZ
****

Pd 0
LANL2DZ

