%nprocs=14
%mem=128GB
%chk=RR_DIOP_1.chk
# PBEPBE gen 6D pseudo=read scf=maxcycles=500 denfit int=(grid=ultrafine) empiricaldispersion=GD3BJ opt freq=noraman

 RR_DIOP

0 1
P    1.31710    4.54350    -0.03710
P    -0.41130    3.05230    -2.67550
O    -0.65790    1.28560    1.37570
O    -0.44990    0.18620    -0.59240
C    0.73700    3.21560    1.10460
C    -0.18950    2.20700    0.41430
C    0.46850    1.25790    -0.59550
C    0.71800    1.73440    -2.04110
C    -0.98770    0.12960    0.68380
C    -0.37670    -1.06460    1.42110
C    -2.51090    0.03920    0.56790
C    1.85520    5.85030    1.19890
C    0.94120    6.32460    2.16570
C    1.32360    7.30300    3.10360
C    2.63030    7.82350    3.08410
C    3.54860    7.36680    2.12120
C    3.16140    6.38930    1.18430
C    2.93840    3.97670    -0.77520
C    3.25960    4.37900    -2.08900
C    4.46130    3.96430    -2.69390
C    5.36010    3.14760    -1.98340
C    5.05790    2.75540    -0.66610
C    3.85450    3.17120    -0.06420
C    -2.09850    2.24980    -2.61690
C    -3.19240    2.94030    -2.05430
C    -4.46900    2.34700    -2.01010
C    -4.66190    1.05260    -2.52790
C    -3.57720    0.35640    -3.09290
C    -2.30340    0.95490    -3.13850
C    -0.01930    3.04750    -4.50490
C    -1.04920    3.22910    -5.45250
C    -0.76540    3.23810    -6.83160
C    0.55800    3.06960    -7.27880
C    1.59480    2.89610    -6.34330
C    1.30650    2.88810    -4.96470
H    1.57220    2.69180    1.56440
H    0.18930    3.66090    1.93380
H    -1.06210    2.70930    -0.00170
H    1.40400    0.87650    -0.18160
H    0.68960    0.87140    -2.70610
H    1.74260    2.08540    -2.11060
H    0.70560    -0.95340    1.48300
H    -0.78270    -1.12560    2.43100
H    -0.60700    -1.98750    0.88850
H    -2.95980    -0.01180    1.55980
H    -2.89910    0.91590    0.05150
H    -2.78980    -0.84970    0.00200
H    -0.07150    5.95060    2.18530
H    0.61140    7.65970    3.83340
H    2.92490    8.57700    3.80010
H    4.55070    7.76980    2.09670
H    3.88370    6.06370    0.45060
H    2.58130    5.01170    -2.64380
H    4.69560    4.27760    -3.70140
H    6.28540    2.83180    -2.44390
H    5.75400    2.14090    -0.11330
H    3.65440    2.87650    0.95440
H    -3.06130    3.93600    -1.65810
H    -5.30080    2.88690    -1.58120
H    -5.64070    0.59620    -2.49550
H    -3.72090    -0.63590    -3.49500
H    -1.47920    0.41450    -3.58030
H    -2.06920    3.36730    -5.12180
H    -1.56510    3.37780    -7.54450
H    0.77680    3.07770    -8.33680
H    2.61250    2.77120    -6.68380
H    2.11840    2.76020    -4.26530
Cl    -1.85340    5.99090    -3.25840
Cl    -0.27060    7.41190    -0.81130
Pd    -0.29920    5.24940    -1.68250

H Cl P C O 0
6-31G(d)
****
Pd 0
LANL2DZ
****

Pd 0
LANL2DZ

