R_SegPhos
                    3D
 Structure written by MMmdl.
 75 81  0  0  1  0            999 V2000
   -1.6595   -0.8136    0.0664 P   0  0  0  0  0  0
    1.7661   -0.5016   -0.0377 P   0  0  0  0  0  0
   -1.3344    0.6919    1.1579 C   0  0  0  0  0  0
    1.1721    0.9797   -1.0458 C   0  0  0  0  0  0
   -0.4969    1.7717    0.7432 C   0  0  0  0  0  0
   -0.3102    2.8313    1.6561 C   0  0  0  0  0  0
   -0.8887    2.8480    2.9056 C   0  0  0  0  0  0
   -1.7107    1.8055    3.3410 C   0  0  0  0  0  0
   -1.9248    0.7313    2.4529 C   0  0  0  0  0  0
    1.7401    1.1958   -2.3334 C   0  0  0  0  0  0
    1.3332    2.2619   -3.1619 C   0  0  0  0  0  0
    0.3398    3.1146   -2.6741 C   0  0  0  0  0  0
   -0.2212    2.9252   -1.4308 C   0  0  0  0  0  0
    0.1564    1.8672   -0.5769 C   0  0  0  0  0  0
   -3.2356   -1.5624    0.7765 C   0  0  0  0  0  0
   -2.1902   -0.1621   -1.6039 C   0  0  0  0  0  0
    3.4477   -0.9159   -0.7793 C   0  0  0  0  0  0
    2.1791    0.1406    1.6691 C   0  0  0  0  0  0
    4.6543   -0.4333   -0.2243 C   0  0  0  0  0  0
    5.8963   -0.7548   -0.8056 C   0  0  0  0  0  0
    5.9490   -1.5668   -1.9530 C   0  0  0  0  0  0
    4.7568   -2.0566   -2.5159 C   0  0  0  0  0  0
    3.5178   -1.7316   -1.9310 C   0  0  0  0  0  0
    2.6577    1.4537    1.8672 C   0  0  0  0  0  0
    2.9497    1.9227    3.1623 C   0  0  0  0  0  0
    2.7669    1.0786    4.2733 C   0  0  0  0  0  0
    2.2978   -0.2350    4.0852 C   0  0  0  0  0  0
    2.0079   -0.7008    2.7880 C   0  0  0  0  0  0
   -2.8967    1.0534   -1.7310 C   0  0  0  0  0  0
   -3.2752    1.5336   -2.9993 C   0  0  0  0  0  0
   -2.9511    0.7984   -4.1546 C   0  0  0  0  0  0
   -2.2540   -0.4188   -4.0376 C   0  0  0  0  0  0
   -1.8781   -0.8962   -2.7670 C   0  0  0  0  0  0
   -4.5122   -1.2728    0.2443 C   0  0  0  0  0  0
   -5.6734   -1.8430    0.8015 C   0  0  0  0  0  0
   -5.5735   -2.7142    1.9014 C   0  0  0  0  0  0
   -4.3097   -3.0138    2.4409 C   0  0  0  0  0  0
   -3.1521   -2.4406    1.8804 C   0  0  0  0  0  0
   -1.2560   -4.1454   -0.1546 Cl  0  0  0  0  0  0
    1.9659   -3.8591   -0.0058 Cl  0  0  0  0  0  0
   -1.1591    3.8866   -1.2174 O   0  0  0  0  0  0
   -1.1619    4.6915   -2.3658 C   0  0  0  0  0  0
   -0.2173    4.1953   -3.2759 O   0  0  0  0  0  0
   -0.5303    3.9757    3.5690 O   0  0  0  0  0  0
    0.3053    4.6825    2.6921 C   0  0  0  0  0  0
    0.4399    3.9550    1.5008 O   0  0  0  0  0  0
   -2.1616    1.8253    4.3220 H   0  0  0  0  0  0
   -2.5600   -0.0695    2.7938 H   0  0  0  0  0  0
    2.5069    0.5418   -2.7145 H   0  0  0  0  0  0
    1.7690    2.4166   -4.1376 H   0  0  0  0  0  0
    4.6452    0.1878    0.6577 H   0  0  0  0  0  0
    6.8096   -0.3793   -0.3672 H   0  0  0  0  0  0
    6.9017   -1.8163   -2.3976 H   0  0  0  0  0  0
    4.7923   -2.6849   -3.3942 H   0  0  0  0  0  0
    2.6108   -2.1167   -2.3732 H   0  0  0  0  0  0
    2.7893    2.1120    1.0199 H   0  0  0  0  0  0
    3.3079    2.9320    3.3016 H   0  0  0  0  0  0
    2.9871    1.4379    5.2682 H   0  0  0  0  0  0
    2.1617   -0.8861    4.9367 H   0  0  0  0  0  0
    1.6554   -1.7130    2.6551 H   0  0  0  0  0  0
   -3.1387    1.6299   -0.8491 H   0  0  0  0  0  0
   -3.8085    2.4689   -3.0840 H   0  0  0  0  0  0
   -3.2377    1.1669   -5.1290 H   0  0  0  0  0  0
   -2.0088   -0.9871   -4.9232 H   0  0  0  0  0  0
   -1.3499   -1.8351   -2.6888 H   0  0  0  0  0  0
   -4.6194   -0.6117   -0.6013 H   0  0  0  0  0  0
   -6.6417   -1.6127    0.3810 H   0  0  0  0  0  0
   -6.4637   -3.1544    2.3272 H   0  0  0  0  0  0
   -4.2273   -3.6865    3.2824 H   0  0  0  0  0  0
   -2.1883   -2.6815    2.3041 H   0  0  0  0  0  0
   -2.1525    4.6740   -2.8211 H   0  0  0  0  0  0
   -0.9057    5.7158   -2.0934 H   0  0  0  0  0  0
   -0.1316    5.6580    2.4759 H   0  0  0  0  0  0
    1.2856    4.8173    3.1500 H   0  0  0  0  0  0
    0.2044   -2.3328   -0.0330 Pd  0  0  0  0  0  0
  1 15  1  0  0  0
  1  3  1  0  0  0
  1 16  1  0  0  0
  2 18  1  0  0  0
  2  4  1  0  0  0
  2 17  1  0  0  0
  3  9  1  0  0  0
  3  5  2  0  0  0
  4 14  1  0  0  0
  4 10  2  0  0  0
  5  6  1  0  0  0
  5 14  1  0  0  0
  6  7  2  0  0  0
  6 46  1  0  0  0
  7  8  1  0  0  0
  7 44  1  0  0  0
  8 47  1  0  0  0
  8  9  2  0  0  0
  9 48  1  0  0  0
 10 11  1  0  0  0
 10 49  1  0  0  0
 11 12  2  0  0  0
 11 50  1  0  0  0
 12 13  1  0  0  0
 12 43  1  0  0  0
 13 41  1  0  0  0
 13 14  2  0  0  0
 15 38  1  0  0  0
 15 34  2  0  0  0
 16 29  1  0  0  0
 16 33  2  0  0  0
 17 19  1  0  0  0
 17 23  2  0  0  0
 18 24  2  0  0  0
 18 28  1  0  0  0
 19 51  1  0  0  0
 19 20  2  0  0  0
 20 52  1  0  0  0
 20 21  1  0  0  0
 21 22  2  0  0  0
 21 53  1  0  0  0
 22 23  1  0  0  0
 22 54  1  0  0  0
 23 55  1  0  0  0
 24 25  1  0  0  0
 24 56  1  0  0  0
 25 57  1  0  0  0
 25 26  2  0  0  0
 26 58  1  0  0  0
 26 27  1  0  0  0
 27 59  1  0  0  0
 27 28  2  0  0  0
 28 60  1  0  0  0
 29 61  1  0  0  0
 29 30  2  0  0  0
 30 31  1  0  0  0
 30 62  1  0  0  0
 31 32  2  0  0  0
 31 63  1  0  0  0
 32 33  1  0  0  0
 32 64  1  0  0  0
 33 65  1  0  0  0
 34 35  1  0  0  0
 34 66  1  0  0  0
 35 36  2  0  0  0
 35 67  1  0  0  0
 36 37  1  0  0  0
 36 68  1  0  0  0
 37 69  1  0  0  0
 37 38  2  0  0  0
 38 70  1  0  0  0
 39 75  1  0  0  0
 40 75  1  0  0  0
 41 42  1  0  0  0
 42 72  1  0  0  0
 42 43  1  0  0  0
 42 71  1  0  0  0
 44 45  1  0  0  0
 45 74  1  0  0  0
 45 46  1  0  0  0
 45 73  1  0  0  0
M  END
> <s_m_entry_id>
342

> <s_m_entry_name>
R-Segphos_2_F.1

> <program>
Gaussian 09, Revision D.01

> <chiral flag>
0

> <version>
0

> <s_m_Source_Path>
/home/sigmangrp/Dropbox/Current Group People/Lucy_v_D/Macromodel/Sam_DFT/Next

> <s_m_Source_File>
R-Segphos_2_F.log

> <i_m_Source_File_Index>
1

> <r_mmod_Potential_Energy-OPLS-2005>
335.154022216797

> <b_mmod_Minimization_Converged-OPLS-2005>
1

> <r_mmod_RMS_Derivative-OPLS-2005>
0.00098092935513705

> <i_mmod_Times_Found-OPLS-2005>
934

> <r_mmod_Relative_Potential_Energy-OPLS-2005>
0

> <i_mmod_Conformation-OPLS-2005>
1

> <i_mmod_Serial_Number-OPLS-2005>
2

> <s_m_job_name>
mmod_csearch_2459

> <s_m_subgroup_title>
mmod_csearch_2459-out1

> <s_m_subgroupid>
mmod_csearch_2459-out1

> <b_m_subgroup_collapsed>
0

$$$$
