%nprocs=14
%mem=128GB
%chk=R_SegPhos_1.chk
# PBEPBE gen 6D pseudo=read scf=maxcycles=500 denfit int=(grid=ultrafine) empiricaldispersion=GD3BJ opt freq=noraman

 R_SegPhos

0 1
P    -1.65950    -0.81360    0.06640
P    1.76610    -0.50160    -0.03770
C    -1.33440    0.69190    1.15790
C    1.17210    0.97970    -1.04580
C    -0.49690    1.77170    0.74320
C    -0.31020    2.83130    1.65610
C    -0.88870    2.84800    2.90560
C    -1.71070    1.80550    3.34100
C    -1.92480    0.73130    2.45290
C    1.74010    1.19580    -2.33340
C    1.33320    2.26190    -3.16190
C    0.33980    3.11460    -2.67410
C    -0.22120    2.92520    -1.43080
C    0.15640    1.86720    -0.57690
C    -3.23560    -1.56240    0.77650
C    -2.19020    -0.16210    -1.60390
C    3.44770    -0.91590    -0.77930
C    2.17910    0.14060    1.66910
C    4.65430    -0.43330    -0.22430
C    5.89630    -0.75480    -0.80560
C    5.94900    -1.56680    -1.95300
C    4.75680    -2.05660    -2.51590
C    3.51780    -1.73160    -1.93100
C    2.65770    1.45370    1.86720
C    2.94970    1.92270    3.16230
C    2.76690    1.07860    4.27330
C    2.29780    -0.23500    4.08520
C    2.00790    -0.70080    2.78800
C    -2.89670    1.05340    -1.73100
C    -3.27520    1.53360    -2.99930
C    -2.95110    0.79840    -4.15460
C    -2.25400    -0.41880    -4.03760
C    -1.87810    -0.89620    -2.76700
C    -4.51220    -1.27280    0.24430
C    -5.67340    -1.84300    0.80150
C    -5.57350    -2.71420    1.90140
C    -4.30970    -3.01380    2.44090
C    -3.15210    -2.44060    1.88040
Cl    -1.25600    -4.14540    -0.15460
Cl    1.96590    -3.85910    -0.00580
O    -1.15910    3.88660    -1.21740
C    -1.16190    4.69150    -2.36580
O    -0.21730    4.19530    -3.27590
O    -0.53030    3.97570    3.56900
C    0.30530    4.68250    2.69210
O    0.43990    3.95500    1.50080
H    -2.16160    1.82530    4.32200
H    -2.56000    -0.06950    2.79380
H    2.50690    0.54180    -2.71450
H    1.76900    2.41660    -4.13760
H    4.64520    0.18780    0.65770
H    6.80960    -0.37930    -0.36720
H    6.90170    -1.81630    -2.39760
H    4.79230    -2.68490    -3.39420
H    2.61080    -2.11670    -2.37320
H    2.78930    2.11200    1.01990
H    3.30790    2.93200    3.30160
H    2.98710    1.43790    5.26820
H    2.16170    -0.88610    4.93670
H    1.65540    -1.71300    2.65510
H    -3.13870    1.62990    -0.84910
H    -3.80850    2.46890    -3.08400
H    -3.23770    1.16690    -5.12900
H    -2.00880    -0.98710    -4.92320
H    -1.34990    -1.83510    -2.68880
H    -4.61940    -0.61170    -0.60130
H    -6.64170    -1.61270    0.38100
H    -6.46370    -3.15440    2.32720
H    -4.22730    -3.68650    3.28240
H    -2.18830    -2.68150    2.30410
H    -2.15250    4.67400    -2.82110
H    -0.90570    5.71580    -2.09340
H    -0.13160    5.65800    2.47590
H    1.28560    4.81730    3.15000
Pd    0.20440    -2.33280    -0.03300

Cl H P C O 0
6-31G(d)
****
Pd 0
LANL2DZ
****

Pd 0
LANL2DZ

