S-35tBu-C3-Tunephos
                    3D
 Structure written by MMmdl.
174179  0  0  1  0            999 V2000
   -3.9245   -1.4781    0.9859 Pd  0  0  0  0  0  0
   -5.0368   -0.1357    2.6395 P   0  0  0  0  0  0
   -2.2250    0.1993    0.6824 P   0  0  0  0  0  0
   -1.5153    3.6708    3.7660 O   0  0  0  0  0  0
   -4.3129    4.4372    3.1424 O   0  0  0  0  0  0
   -6.1401   -1.1200    3.8066 C   0  0  0  0  0  0
   -7.4459   -0.7063    4.1361 C   0  0  0  0  0  0
   -8.2639   -1.4513    5.0128 C   0  0  0  0  0  0
   -7.7464   -2.6503    5.5596 C   0  0  0  0  0  0
   -6.4438   -3.1038    5.2389 C   0  0  0  0  0  0
   -5.6602   -2.3226    4.3613 C   0  0  0  0  0  0
   -6.1708    1.1500    1.9024 C   0  0  0  0  0  0
   -6.6614    2.2235    2.6695 C   0  0  0  0  0  0
   -7.5282    3.1876    2.1059 C   0  0  0  0  0  0
   -7.8688    3.0653    0.7383 C   0  0  0  0  0  0
   -7.3750    2.0052   -0.0599 C   0  0  0  0  0  0
   -6.5348    1.0480    0.5484 C   0  0  0  0  0  0
   -3.8365    0.7924    3.7584 C   0  0  0  0  0  0
   -3.6192    0.3079    5.0691 C   0  0  0  0  0  0
   -2.7054    0.9252    5.9377 C   0  0  0  0  0  0
   -1.9904    2.0512    5.5089 C   0  0  0  0  0  0
   -2.2005    2.5645    4.2134 C   0  0  0  0  0  0
   -3.1129    1.9387    3.3239 C   0  0  0  0  0  0
   -3.3005    2.5718    1.9971 C   0  0  0  0  0  0
   -3.8616    3.8766    1.9717 C   0  0  0  0  0  0
   -4.0086    4.5773    0.7601 C   0  0  0  0  0  0
   -3.5806    3.9937   -0.4390 C   0  0  0  0  0  0
   -3.0285    2.7030   -0.4256 C   0  0  0  0  0  0
   -2.8897    1.9662    0.7748 C   0  0  0  0  0  0
   -1.3870    0.0612   -0.9985 C   0  0  0  0  0  0
   -2.1981   -0.0658   -2.1438 C   0  0  0  0  0  0
   -1.6485   -0.2036   -3.4359 C   0  0  0  0  0  0
   -0.2401   -0.2189   -3.5616 C   0  0  0  0  0  0
    0.6068   -0.1046   -2.4353 C   0  0  0  0  0  0
    0.0140    0.0354   -1.1572 C   0  0  0  0  0  0
   -0.8487    0.0660    1.9392 C   0  0  0  0  0  0
   -0.7939   -1.0817    2.7487 C   0  0  0  0  0  0
    0.2121   -1.2499    3.7235 C   0  0  0  0  0  0
    1.1935   -0.2377    3.8552 C   0  0  0  0  0  0
    1.1723    0.9261    3.0468 C   0  0  0  0  0  0
    0.1266    1.0689    2.1048 C   0  0  0  0  0  0
   -3.7028    5.6593    3.5369 C   0  0  0  0  0  0
   -7.8415    0.1971    3.7046 H   0  0  0  0  0  0
   -8.3584   -3.2316    6.2263 H   0  0  0  0  0  0
   -4.6645   -2.6467    4.1011 H   0  0  0  0  0  0
   -6.3499    2.2792    3.7010 H   0  0  0  0  0  0
   -8.5204    3.8094    0.3118 H   0  0  0  0  0  0
   -6.1551    0.2210   -0.0306 H   0  0  0  0  0  0
   -4.1490   -0.5552    5.4360 H   0  0  0  0  0  0
   -2.5482    0.5290    6.9300 H   0  0  0  0  0  0
   -1.2736    2.5057    6.1744 H   0  0  0  0  0  0
   -4.4597    5.5578    0.7512 H   0  0  0  0  0  0
   -3.6873    4.5289   -1.3709 H   0  0  0  0  0  0
   -2.7169    2.2911   -1.3703 H   0  0  0  0  0  0
   -3.2696   -0.0558   -2.0174 H   0  0  0  0  0  0
    0.2179   -0.3294   -4.5303 H   0  0  0  0  0  0
    0.6282    0.1078   -0.2765 H   0  0  0  0  0  0
   -1.5441   -1.8452    2.6168 H   0  0  0  0  0  0
    1.9745   -0.3580    4.5844 H   0  0  0  0  0  0
    0.0686    1.9510    1.4843 H   0  0  0  0  0  0
   -3.0652    6.1005    2.7689 H   0  0  0  0  0  0
   -5.5887   -3.1020    1.1626 Cl  0  0  0  0  0  0
   -2.8462   -2.8776   -0.5360 Cl  0  0  0  0  0  0
   -2.9056    5.4133    4.8289 C   0  0  0  0  0  0
   -1.5008    4.8217    4.6013 C   0  0  0  0  0  0
   -1.0063    4.6189    5.5509 H   0  0  0  0  0  0
   -3.4842    4.7704    5.4931 H   0  0  0  0  0  0
   -2.7901    6.3599    5.3567 H   0  0  0  0  0  0
  -10.4453   -1.8388    6.3228 C   0  0  0  0  0  0
   -9.6807   -0.9365    5.3299 C   0  0  0  0  0  0
  -10.5041   -0.8674    4.0283 C   0  0  0  0  0  0
   -9.5924    0.4724    5.9513 C   0  0  0  0  0  0
   -9.9266   -1.9144    7.2792 H   0  0  0  0  0  0
  -11.4403   -1.4442    6.5310 H   0  0  0  0  0  0
  -10.5813   -2.8467    5.9287 H   0  0  0  0  0  0
  -10.0697   -0.1800    3.3021 H   0  0  0  0  0  0
  -10.5651   -1.8464    3.5514 H   0  0  0  0  0  0
  -11.5233   -0.5294    4.2172 H   0  0  0  0  0  0
   -9.1451    1.1964    5.2704 H   0  0  0  0  0  0
  -10.5787    0.8542    6.2163 H   0  0  0  0  0  0
   -8.9884    0.4630    6.8593 H   0  0  0  0  0  0
   -6.8478   -5.1754    6.7124 C   0  0  0  0  0  0
   -5.8579   -4.4092    5.8080 C   0  0  0  0  0  0
   -4.6095   -4.0832    6.6506 C   0  0  0  0  0  0
   -5.4645   -5.3478    4.6492 C   0  0  0  0  0  0
   -7.7523   -5.4555    6.1710 H   0  0  0  0  0  0
   -6.4061   -6.0978    7.0911 H   0  0  0  0  0  0
   -7.1408   -4.5854    7.5816 H   0  0  0  0  0  0
   -3.8307   -3.6044    6.0592 H   0  0  0  0  0  0
   -4.8560   -3.4079    7.4708 H   0  0  0  0  0  0
   -4.1743   -4.9836    7.0852 H   0  0  0  0  0  0
   -4.6963   -4.9171    4.0074 H   0  0  0  0  0  0
   -5.0749   -6.2971    5.0179 H   0  0  0  0  0  0
   -6.3252   -5.5700    4.0170 H   0  0  0  0  0  0
   -7.6545    5.6927    2.3131 C   0  0  0  0  0  0
   -8.1020    4.3536    2.9310 C   0  0  0  0  0  0
   -7.6395    4.3364    4.4048 C   0  0  0  0  0  0
   -9.6416    4.2739    2.9283 C   0  0  0  0  0  0
   -8.0168    5.8178    1.2932 H   0  0  0  0  0  0
   -8.0212    6.5415    2.8905 H   0  0  0  0  0  0
   -6.5671    5.7616    2.2815 H   0  0  0  0  0  0
   -7.9471    3.4220    4.9132 H   0  0  0  0  0  0
   -6.5557    4.4192    4.4891 H   0  0  0  0  0  0
   -8.0648    5.1700    4.9641 H   0  0  0  0  0  0
   -9.9841    3.3245    3.3421 H   0  0  0  0  0  0
  -10.0837    5.0714    3.5261 H   0  0  0  0  0  0
  -10.0573    4.3595    1.9246 H   0  0  0  0  0  0
   -8.4618    0.5324   -1.7845 C   0  0  0  0  0  0
   -7.7181    1.8625   -1.5532 C   0  0  0  0  0  0
   -6.4175    1.8729   -2.3814 C   0  0  0  0  0  0
   -8.6165    3.0033   -2.0778 C   0  0  0  0  0  0
   -9.3773    0.4882   -1.1932 H   0  0  0  0  0  0
   -8.7408    0.4072   -2.8311 H   0  0  0  0  0  0
   -7.8570   -0.3316   -1.5093 H   0  0  0  0  0  0
   -5.8553    2.7926   -2.2151 H   0  0  0  0  0  0
   -5.7606    1.0415   -2.1277 H   0  0  0  0  0  0
   -6.6233    1.8018   -3.4498 H   0  0  0  0  0  0
   -9.5750    3.0325   -1.5583 H   0  0  0  0  0  0
   -8.8353    2.8794   -3.1389 H   0  0  0  0  0  0
   -8.1380    3.9767   -1.9629 H   0  0  0  0  0  0
   -3.4129    0.9633   -4.7872 C   0  0  0  0  0  0
   -2.5896   -0.3314   -4.6472 C   0  0  0  0  0  0
   -3.5424   -1.5271   -4.4430 C   0  0  0  0  0  0
   -1.8364   -0.5580   -5.9759 C   0  0  0  0  0  0
   -2.7625    1.8273   -4.9292 H   0  0  0  0  0  0
   -4.0897    0.9169   -5.6408 H   0  0  0  0  0  0
   -4.0202    1.1580   -3.9045 H   0  0  0  0  0  0
   -2.9828   -2.4529   -4.3020 H   0  0  0  0  0  0
   -4.1863   -1.4036   -3.5727 H   0  0  0  0  0  0
   -4.1971   -1.6678   -5.3035 H   0  0  0  0  0  0
   -1.2373   -1.4692   -5.9470 H   0  0  0  0  0  0
   -2.5291   -0.6588   -6.8121 H   0  0  0  0  0  0
   -1.1748    0.2759   -6.2132 H   0  0  0  0  0  0
    2.9197    0.0135   -1.3177 C   0  0  0  0  0  0
    2.1333   -0.1524   -2.6350 C   0  0  0  0  0  0
    2.5694    0.9851   -3.5805 C   0  0  0  0  0  0
    2.5285   -1.5102   -3.2481 C   0  0  0  0  0  0
    2.6870   -0.7769   -0.6027 H   0  0  0  0  0  0
    3.9959   -0.0206   -1.4889 H   0  0  0  0  0  0
    2.7022    0.9719   -0.8477 H   0  0  0  0  0  0
    2.1246    0.8941   -4.5710 H   0  0  0  0  0  0
    2.2790    1.9578   -3.1815 H   0  0  0  0  0  0
    3.6510    0.9965   -3.7179 H   0  0  0  0  0  0
    2.0724   -1.6695   -4.2250 H   0  0  0  0  0  0
    3.6077   -1.5896   -3.3818 H   0  0  0  0  0  0
    2.2155   -2.3344   -2.6058 H   0  0  0  0  0  0
    1.3555   -2.5549    5.6245 C   0  0  0  0  0  0
    0.2055   -2.5195    4.5947 C   0  0  0  0  0  0
    0.3444   -3.7626    3.6936 C   0  0  0  0  0  0
   -1.1217   -2.5991    5.3751 C   0  0  0  0  0  0
    1.3040   -1.7116    6.3142 H   0  0  0  0  0  0
    1.3188   -3.4621    6.2284 H   0  0  0  0  0  0
    2.3319   -2.5376    5.1387 H   0  0  0  0  0  0
   -0.4808   -3.8563    2.9878 H   0  0  0  0  0  0
    1.2656   -3.7223    3.1110 H   0  0  0  0  0  0
    0.3677   -4.6812    4.2806 H   0  0  0  0  0  0
   -1.9860   -2.6536    4.7140 H   0  0  0  0  0  0
   -1.1550   -3.4787    6.0185 H   0  0  0  0  0  0
   -1.2543   -1.7226    6.0101 H   0  0  0  0  0  0
    1.6022    3.3639    3.5293 C   0  0  0  0  0  0
    2.2525    2.0207    3.1552 C   0  0  0  0  0  0
    2.9706    2.1680    1.8007 C   0  0  0  0  0  0
    3.3271    1.7125    4.2210 C   0  0  0  0  0  0
    1.0642    3.2842    4.4742 H   0  0  0  0  0  0
    2.3450    4.1542    3.6383 H   0  0  0  0  0  0
    0.8914    3.6967    2.7731 H   0  0  0  0  0  0
    3.4305    1.2264    1.4990 H   0  0  0  0  0  0
    2.2868    2.4699    1.0075 H   0  0  0  0  0  0
    3.7593    2.9194    1.8449 H   0  0  0  0  0  0
    3.8595    0.7865    4.0004 H   0  0  0  0  0  0
    4.0758    2.5039    4.2690 H   0  0  0  0  0  0
    2.8925    1.6269    5.2176 H   0  0  0  0  0  0
   -0.8808    5.5652    4.1000 H   0  0  0  0  0  0
   -4.5034    6.3731    3.7314 H   0  0  0  0  0  0
  1 62  1  0  0  0
  1 63  1  0  0  0
  2 12  1  0  0  0
  2  6  1  0  0  0
  2 18  1  0  0  0
  3 30  1  0  0  0
  3 29  1  0  0  0
  3 36  1  0  0  0
  4 22  1  0  0  0
  4 65  1  0  0  0
  5 25  1  0  0  0
  5 42  1  0  0  0
  6 11  1  0  0  0
  6  7  2  0  0  0
  7  8  1  0  0  0
  7 43  1  0  0  0
  8  9  2  0  0  0
  8 70  1  0  0  0
  9 10  1  0  0  0
  9 44  1  0  0  0
 10 11  2  0  0  0
 10 83  1  0  0  0
 11 45  1  0  0  0
 12 13  2  0  0  0
 12 17  1  0  0  0
 13 14  1  0  0  0
 13 46  1  0  0  0
 14 15  2  0  0  0
 14 96  1  0  0  0
 15 47  1  0  0  0
 15 16  1  0  0  0
 16 17  2  0  0  0
 16109  1  0  0  0
 17 48  1  0  0  0
 18 23  1  0  0  0
 18 19  2  0  0  0
 19 20  1  0  0  0
 19 49  1  0  0  0
 20 21  2  0  0  0
 20 50  1  0  0  0
 21 22  1  0  0  0
 21 51  1  0  0  0
 22 23  2  0  0  0
 23 24  1  0  0  0
 24 29  2  0  0  0
 24 25  1  0  0  0
 25 26  2  0  0  0
 26 27  1  0  0  0
 26 52  1  0  0  0
 27 53  1  0  0  0
 27 28  2  0  0  0
 28 54  1  0  0  0
 28 29  1  0  0  0
 30 31  1  0  0  0
 30 35  2  0  0  0
 31 55  1  0  0  0
 31 32  2  0  0  0
 32 33  1  0  0  0
 32122  1  0  0  0
 33 56  1  0  0  0
 33 34  2  0  0  0
 34 35  1  0  0  0
 34135  1  0  0  0
 35 57  1  0  0  0
 36 37  2  0  0  0
 36 41  1  0  0  0
 37 58  1  0  0  0
 37 38  1  0  0  0
 38 39  2  0  0  0
 38148  1  0  0  0
 39 40  1  0  0  0
 39 59  1  0  0  0
 40 41  2  0  0  0
 40161  1  0  0  0
 41 60  1  0  0  0
 42 61  1  0  0  0
 42 64  1  0  0  0
 42174  1  0  0  0
 64 65  1  0  0  0
 64 67  1  0  0  0
 64 68  1  0  0  0
 65 66  1  0  0  0
 65173  1  0  0  0
 69 70  1  0  0  0
 69 73  1  0  0  0
 69 74  1  0  0  0
 69 75  1  0  0  0
 70 71  1  0  0  0
 70 72  1  0  0  0
 71 76  1  0  0  0
 71 77  1  0  0  0
 71 78  1  0  0  0
 72 79  1  0  0  0
 72 80  1  0  0  0
 72 81  1  0  0  0
 82 83  1  0  0  0
 82 86  1  0  0  0
 82 87  1  0  0  0
 82 88  1  0  0  0
 83 84  1  0  0  0
 83 85  1  0  0  0
 84 89  1  0  0  0
 84 90  1  0  0  0
 84 91  1  0  0  0
 85 92  1  0  0  0
 85 93  1  0  0  0
 85 94  1  0  0  0
 95 96  1  0  0  0
 95 99  1  0  0  0
 95100  1  0  0  0
 95101  1  0  0  0
 96 97  1  0  0  0
 96 98  1  0  0  0
 97102  1  0  0  0
 97103  1  0  0  0
 97104  1  0  0  0
 98105  1  0  0  0
 98106  1  0  0  0
 98107  1  0  0  0
108109  1  0  0  0
108112  1  0  0  0
108113  1  0  0  0
108114  1  0  0  0
109110  1  0  0  0
109111  1  0  0  0
110115  1  0  0  0
110116  1  0  0  0
110117  1  0  0  0
111118  1  0  0  0
111119  1  0  0  0
111120  1  0  0  0
121122  1  0  0  0
121125  1  0  0  0
121126  1  0  0  0
121127  1  0  0  0
122123  1  0  0  0
122124  1  0  0  0
123128  1  0  0  0
123129  1  0  0  0
123130  1  0  0  0
124131  1  0  0  0
124132  1  0  0  0
124133  1  0  0  0
134135  1  0  0  0
134138  1  0  0  0
134139  1  0  0  0
134140  1  0  0  0
135136  1  0  0  0
135137  1  0  0  0
136141  1  0  0  0
136142  1  0  0  0
136143  1  0  0  0
137144  1  0  0  0
137145  1  0  0  0
137146  1  0  0  0
147148  1  0  0  0
147151  1  0  0  0
147152  1  0  0  0
147153  1  0  0  0
148149  1  0  0  0
148150  1  0  0  0
149154  1  0  0  0
149155  1  0  0  0
149156  1  0  0  0
150157  1  0  0  0
150158  1  0  0  0
150159  1  0  0  0
160161  1  0  0  0
160164  1  0  0  0
160165  1  0  0  0
160166  1  0  0  0
161162  1  0  0  0
161163  1  0  0  0
162167  1  0  0  0
162168  1  0  0  0
162169  1  0  0  0
163170  1  0  0  0
163171  1  0  0  0
163172  1  0  0  0
M  END
> <s_m_entry_id>
626

> <s_m_entry_name>
R_C3_Tunephos_1_5_SPE.1

> <program>
Gaussian 09, Revision D.01

> <chiral flag>
0

> <version>
0

> <s_m_Source_Path>
/home/sigmangrp/Documents/Schrodinger/S-35tBu-C3-Tunephos

> <s_m_Source_File>
S-35tBu-C3-Tunephos_ligand1_representatives.maegz

> <i_m_Source_File_Index>
5

> <s_m_job_name>
mmod_csearch_2382

> <r_mmod_Potential_Energy-OPLS-2005>
74.5299911499023

> <b_mmod_Minimization_Converged-OPLS-2005>
1

> <r_mmod_RMS_Derivative-OPLS-2005>
0.000842079753056169

> <i_mmod_Times_Found-OPLS-2005>
2

> <r_mmod_Relative_Potential_Energy-OPLS-2005>
5.15641021728516

> <i_mmod_Conformation-OPLS-2005>
110

> <i_mmod_Serial_Number-OPLS-2005>
6

> <r_canvas_Distance_To_Centroid>
0.103444009713454

> <b_canvas_Is_Nearest_To_Centroid>
1

> <b_canvas_Is_Farthest_From_Centroid>
0

> <r_canvas_Max_Distance_From_Centroid>
0.192348128022108

> <r_canvas_Average_Distance_From_Centroid>
0.120719633442653

> <r_canvas_Cluster_Variance>
0.0147579256144548

> <i_canvas_Canvas_Cluster_Index>
5

> <i_canvas_Canvas_Cluster_Size>
52

> <s_m_subgroup_title>
S-35tBu-C3-Tunephos_ligand1_representatives

> <s_m_subgroupid>
S-35tBu-C3-Tunephos_ligand1_representatives

> <b_m_subgroup_collapsed>
0

$$$$
