S-35tBu-C3-Tunephos
                    3D
 Structure written by MMmdl.
174179  0  0  1  0            999 V2000
   -4.1214   -1.4034    0.9163 Pd  0  0  0  0  0  0
   -5.1044   -0.0223    2.6242 P   0  0  0  0  0  0
   -2.3251    0.1612    0.6096 P   0  0  0  0  0  0
   -1.3145    3.5670    3.6297 O   0  0  0  0  0  0
   -4.0648    4.5380    3.0880 O   0  0  0  0  0  0
   -6.1617   -1.0306    3.8084 C   0  0  0  0  0  0
   -5.6141   -2.2117    4.3468 C   0  0  0  0  0  0
   -6.3417   -3.0355    5.2305 C   0  0  0  0  0  0
   -7.6630   -2.6536    5.5596 C   0  0  0  0  0  0
   -8.2524   -1.4838    5.0262 C   0  0  0  0  0  0
   -7.4838   -0.6804    4.1494 C   0  0  0  0  0  0
   -6.2279    1.2932    1.9227 C   0  0  0  0  0  0
   -6.7459    2.3431    2.7053 C   0  0  0  0  0  0
   -7.6105    3.3141    2.1484 C   0  0  0  0  0  0
   -7.9136    3.2304    0.7663 C   0  0  0  0  0  0
   -7.3872    2.1971   -0.0467 C   0  0  0  0  0  0
   -6.5553    1.2311    0.5573 C   0  0  0  0  0  0
   -3.8432    0.8651    3.7191 C   0  0  0  0  0  0
   -3.6432    0.4024    5.0415 C   0  0  0  0  0  0
   -2.6804    0.9765    5.8859 C   0  0  0  0  0  0
   -1.8921    2.0366    5.4215 C   0  0  0  0  0  0
   -2.0837    2.5341    4.1171 C   0  0  0  0  0  0
   -3.0581    1.9599    3.2572 C   0  0  0  0  0  0
   -3.2401    2.5921    1.9296 C   0  0  0  0  0  0
   -3.7153    3.9299    1.9072 C   0  0  0  0  0  0
   -3.8658    4.6248    0.6927 C   0  0  0  0  0  0
   -3.5211    4.0024   -0.5139 C   0  0  0  0  0  0
   -3.0443    2.6819   -0.5030 C   0  0  0  0  0  0
   -2.9011    1.9549    0.7023 C   0  0  0  0  0  0
   -1.4502    0.0091   -1.0510 C   0  0  0  0  0  0
   -2.2198   -0.1255   -2.2240 C   0  0  0  0  0  0
   -1.6162   -0.2394   -3.4975 C   0  0  0  0  0  0
   -0.2045   -0.2232   -3.5733 C   0  0  0  0  0  0
    0.5987   -0.1007   -2.4147 C   0  0  0  0  0  0
   -0.0458    0.0107   -1.1638 C   0  0  0  0  0  0
   -0.9804   -0.0456    1.8853 C   0  0  0  0  0  0
   -0.9766   -1.2072    2.6782 C   0  0  0  0  0  0
   -0.0029   -1.4031    3.6829 C   0  0  0  0  0  0
    0.9876   -0.4086    3.8540 C   0  0  0  0  0  0
    1.0180    0.7623    3.0613 C   0  0  0  0  0  0
    0.0095    0.9348    2.0856 C   0  0  0  0  0  0
   -3.3441    5.7162    3.4287 C   0  0  0  0  0  0
   -4.6047   -2.4792    4.0754 H   0  0  0  0  0  0
   -8.2541   -3.2602    6.2252 H   0  0  0  0  0  0
   -7.9031    0.2098    3.7130 H   0  0  0  0  0  0
   -6.4764    2.3879    3.7501 H   0  0  0  0  0  0
   -8.5593    3.9673    0.3234 H   0  0  0  0  0  0
   -6.1522    0.4261   -0.0364 H   0  0  0  0  0  0
   -4.2244   -0.4102    5.4422 H   0  0  0  0  0  0
   -2.5395    0.5942    6.8860 H   0  0  0  0  0  0
   -1.1349    2.4513    6.0676 H   0  0  0  0  0  0
   -4.2526    5.6325    0.6887 H   0  0  0  0  0  0
   -3.6311    4.5324   -1.4483 H   0  0  0  0  0  0
   -2.7941    2.2378   -1.4517 H   0  0  0  0  0  0
   -3.2919   -0.1383   -2.1138 H   0  0  0  0  0  0
    0.2522   -0.3157   -4.5445 H   0  0  0  0  0  0
    0.5580    0.0895   -0.2761 H   0  0  0  0  0  0
   -1.7488   -1.9369    2.4998 H   0  0  0  0  0  0
    1.7399   -0.5444    4.6145 H   0  0  0  0  0  0
   -0.0357    1.8194    1.4694 H   0  0  0  0  0  0
   -2.7010    6.0853    2.6278 H   0  0  0  0  0  0
   -5.8876   -2.9149    1.1004 Cl  0  0  0  0  0  0
   -3.1737   -2.8382   -0.6583 Cl  0  0  0  0  0  0
   -2.5212    5.4383    4.6980 C   0  0  0  0  0  0
   -1.1776    4.7290    4.4377 C   0  0  0  0  0  0
   -0.6694    4.5058    5.3753 H   0  0  0  0  0  0
   -3.1246    4.8612    5.3994 H   0  0  0  0  0  0
   -2.3107    6.3850    5.1952 H   0  0  0  0  0  0
   -4.4706   -3.8917    6.6688 C   0  0  0  0  0  0
   -5.6763   -4.3012    5.8004 C   0  0  0  0  0  0
   -5.1948   -5.2035    4.6455 C   0  0  0  0  0  0
   -6.6295   -5.1393    6.6797 C   0  0  0  0  0  0
   -4.7831   -3.2513    7.4944 H   0  0  0  0  0  0
   -3.9731   -4.7620    7.0979 H   0  0  0  0  0  0
   -3.7223   -3.3413    6.0996 H   0  0  0  0  0  0
   -4.7537   -6.1283    5.0185 H   0  0  0  0  0  0
   -4.4397   -4.7212    4.0256 H   0  0  0  0  0  0
   -6.0240   -5.4765    3.9913 H   0  0  0  0  0  0
   -7.5058   -5.4687    6.1197 H   0  0  0  0  0  0
   -6.1362   -6.0360    7.0561 H   0  0  0  0  0  0
   -6.9737   -4.5797    7.5502 H   0  0  0  0  0  0
  -10.6436   -2.2609    4.9363 C   0  0  0  0  0  0
   -9.7036   -1.1327    5.4046 C   0  0  0  0  0  0
  -10.1935    0.1822    4.7621 C   0  0  0  0  0  0
   -9.8164   -0.9712    6.9340 C   0  0  0  0  0  0
  -10.4113   -3.2144    5.4101 H   0  0  0  0  0  0
  -11.6851   -2.0346    5.1661 H   0  0  0  0  0  0
  -10.5698   -2.4081    3.8580 H   0  0  0  0  0  0
   -9.5831    1.0275    5.0782 H   0  0  0  0  0  0
  -10.1709    0.1351    3.6725 H   0  0  0  0  0  0
  -11.2213    0.4069    5.0484 H   0  0  0  0  0  0
   -9.1421   -0.1939    7.2956 H   0  0  0  0  0  0
  -10.8277   -0.6928    7.2318 H   0  0  0  0  0  0
   -9.5698   -1.8892    7.4667 H   0  0  0  0  0  0
   -9.1402    5.3814    2.3034 C   0  0  0  0  0  0
   -8.1973    4.4152    3.0537 C   0  0  0  0  0  0
   -7.0591    5.2554    3.6594 C   0  0  0  0  0  0
   -9.0076    3.7664    4.1919 C   0  0  0  0  0  0
   -9.9933    4.8570    1.8711 H   0  0  0  0  0  0
   -9.5422    6.1424    2.9731 H   0  0  0  0  0  0
   -8.6216    5.9081    1.5014 H   0  0  0  0  0  0
   -6.3930    4.6541    4.2781 H   0  0  0  0  0  0
   -6.4544    5.7120    2.8755 H   0  0  0  0  0  0
   -7.4428    6.0580    4.2894 H   0  0  0  0  0  0
   -8.3871    3.1323    4.8250 H   0  0  0  0  0  0
   -9.4603    4.5175    4.8397 H   0  0  0  0  0  0
   -9.8125    3.1475    3.7940 H   0  0  0  0  0  0
   -6.3684    2.1564   -2.3470 C   0  0  0  0  0  0
   -7.6886    2.0880   -1.5530 C   0  0  0  0  0  0
   -8.6047    3.2177   -2.0712 C   0  0  0  0  0  0
   -8.3901    0.7460   -1.8422 C   0  0  0  0  0  0
   -5.6882    1.3451   -2.0894 H   0  0  0  0  0  0
   -6.5442    2.0972   -3.4214 H   0  0  0  0  0  0
   -5.8444    3.0924   -2.1515 H   0  0  0  0  0  0
   -9.5754    3.2089   -1.5740 H   0  0  0  0  0  0
   -8.1554    4.2003   -1.9222 H   0  0  0  0  0  0
   -8.7953    3.1145   -3.1399 H   0  0  0  0  0  0
   -9.3175    0.6592   -1.2746 H   0  0  0  0  0  0
   -8.6418    0.6462   -2.8985 H   0  0  0  0  0  0
   -7.7692   -0.1106   -1.5806 H   0  0  0  0  0  0
   -3.9676   -0.3641   -4.5325 C   0  0  0  0  0  0
   -2.4442   -0.3878   -4.7871 C   0  0  0  0  0  0
   -2.1034   -1.7304   -5.4628 C   0  0  0  0  0  0
   -2.1156    0.7709   -5.7496 C   0  0  0  0  0  0
   -4.2842    0.5742   -4.0763 H   0  0  0  0  0  0
   -4.5262   -0.4690   -5.4631 H   0  0  0  0  0  0
   -4.2806   -1.1826   -3.8827 H   0  0  0  0  0  0
   -1.0530   -1.7938   -5.7466 H   0  0  0  0  0  0
   -2.3094   -2.5675   -4.7943 H   0  0  0  0  0  0
   -2.6896   -1.8824   -6.3695 H   0  0  0  0  0  0
   -1.0677    0.7750   -6.0486 H   0  0  0  0  0  0
   -2.7068    0.7098   -6.6638 H   0  0  0  0  0  0
   -2.3253    1.7359   -5.2866 H   0  0  0  0  0  0
    2.6693    1.2195   -1.8569 C   0  0  0  0  0  0
    2.1375   -0.0923   -2.4689 C   0  0  0  0  0  0
    2.6912   -0.1980   -3.9064 C   0  0  0  0  0  0
    2.6855   -1.2879   -1.6645 C   0  0  0  0  0  0
    2.3945    1.3257   -0.8077 H   0  0  0  0  0  0
    3.7573    1.2709   -1.9067 H   0  0  0  0  0  0
    2.2743    2.0873   -2.3864 H   0  0  0  0  0  0
    2.3838   -1.1265   -4.3890 H   0  0  0  0  0  0
    2.3586    0.6344   -4.5277 H   0  0  0  0  0  0
    3.7816   -0.1839   -3.9129 H   0  0  0  0  0  0
    2.3075   -2.2316   -2.0595 H   0  0  0  0  0  0
    3.7744   -1.3288   -1.7007 H   0  0  0  0  0  0
    2.4027   -1.2407   -0.6126 H   0  0  0  0  0  0
   -1.1124   -3.6576    4.2294 C   0  0  0  0  0  0
   -0.0031   -2.6452    4.5921 C   0  0  0  0  0  0
   -0.2304   -2.2040    6.0506 C   0  0  0  0  0  0
    1.3496   -3.3761    4.4782 C   0  0  0  0  0  0
   -1.0014   -4.0271    3.2091 H   0  0  0  0  0  0
   -1.0870   -4.5271    4.8872 H   0  0  0  0  0  0
   -2.1059   -3.2194    4.3246 H   0  0  0  0  0  0
    0.5538   -1.5333    6.4017 H   0  0  0  0  0  0
   -1.1792   -1.6765    6.1554 H   0  0  0  0  0  0
   -0.2522   -3.0578    6.7284 H   0  0  0  0  0  0
    2.1844   -2.7564    4.8045 H   0  0  0  0  0  0
    1.3676   -4.2795    5.0886 H   0  0  0  0  0  0
    1.5482   -3.6728    3.4476 H   0  0  0  0  0  0
    3.5014    1.1438    3.0292 C   0  0  0  0  0  0
    2.1308    1.8017    3.2828 C   0  0  0  0  0  0
    2.0709    2.3233    4.7316 C   0  0  0  0  0  0
    2.0159    3.0189    2.3390 C   0  0  0  0  0  0
    3.5629    0.7483    2.0144 H   0  0  0  0  0  0
    4.3163    1.8574    3.1536 H   0  0  0  0  0  0
    3.6934    0.3165    3.7121 H   0  0  0  0  0  0
    1.1011    2.7737    4.9408 H   0  0  0  0  0  0
    2.2255    1.5302    5.4626 H   0  0  0  0  0  0
    2.8323    3.0818    4.9148 H   0  0  0  0  0  0
    1.0754    3.5519    2.4813 H   0  0  0  0  0  0
    2.8171    3.7365    2.5167 H   0  0  0  0  0  0
    2.0796    2.7239    1.2911 H   0  0  0  0  0  0
   -0.5167    5.4087    3.8995 H   0  0  0  0  0  0
   -4.0761    6.4981    3.6310 H   0  0  0  0  0  0
  1 62  1  0  0  0
  1 63  1  0  0  0
  2 12  1  0  0  0
  2  6  1  0  0  0
  2 18  1  0  0  0
  3 30  1  0  0  0
  3 29  1  0  0  0
  3 36  1  0  0  0
  4 22  1  0  0  0
  4 65  1  0  0  0
  5 25  1  0  0  0
  5 42  1  0  0  0
  6 11  1  0  0  0
  6  7  2  0  0  0
  7  8  1  0  0  0
  7 43  1  0  0  0
  8  9  2  0  0  0
  8 70  1  0  0  0
  9 10  1  0  0  0
  9 44  1  0  0  0
 10 11  2  0  0  0
 10 83  1  0  0  0
 11 45  1  0  0  0
 12 13  2  0  0  0
 12 17  1  0  0  0
 13 14  1  0  0  0
 13 46  1  0  0  0
 14 15  2  0  0  0
 14 96  1  0  0  0
 15 47  1  0  0  0
 15 16  1  0  0  0
 16 17  2  0  0  0
 16109  1  0  0  0
 17 48  1  0  0  0
 18 23  1  0  0  0
 18 19  2  0  0  0
 19 20  1  0  0  0
 19 49  1  0  0  0
 20 21  2  0  0  0
 20 50  1  0  0  0
 21 22  1  0  0  0
 21 51  1  0  0  0
 22 23  2  0  0  0
 23 24  1  0  0  0
 24 29  2  0  0  0
 24 25  1  0  0  0
 25 26  2  0  0  0
 26 27  1  0  0  0
 26 52  1  0  0  0
 27 53  1  0  0  0
 27 28  2  0  0  0
 28 54  1  0  0  0
 28 29  1  0  0  0
 30 31  1  0  0  0
 30 35  2  0  0  0
 31 55  1  0  0  0
 31 32  2  0  0  0
 32 33  1  0  0  0
 32122  1  0  0  0
 33 56  1  0  0  0
 33 34  2  0  0  0
 34 35  1  0  0  0
 34135  1  0  0  0
 35 57  1  0  0  0
 36 37  2  0  0  0
 36 41  1  0  0  0
 37 58  1  0  0  0
 37 38  1  0  0  0
 38 39  2  0  0  0
 38148  1  0  0  0
 39 40  1  0  0  0
 39 59  1  0  0  0
 40 41  2  0  0  0
 40161  1  0  0  0
 41 60  1  0  0  0
 42 61  1  0  0  0
 42 64  1  0  0  0
 42174  1  0  0  0
 64 65  1  0  0  0
 64 67  1  0  0  0
 64 68  1  0  0  0
 65 66  1  0  0  0
 65173  1  0  0  0
 69 70  1  0  0  0
 69 73  1  0  0  0
 69 74  1  0  0  0
 69 75  1  0  0  0
 70 71  1  0  0  0
 70 72  1  0  0  0
 71 76  1  0  0  0
 71 77  1  0  0  0
 71 78  1  0  0  0
 72 79  1  0  0  0
 72 80  1  0  0  0
 72 81  1  0  0  0
 82 83  1  0  0  0
 82 86  1  0  0  0
 82 87  1  0  0  0
 82 88  1  0  0  0
 83 84  1  0  0  0
 83 85  1  0  0  0
 84 89  1  0  0  0
 84 90  1  0  0  0
 84 91  1  0  0  0
 85 92  1  0  0  0
 85 93  1  0  0  0
 85 94  1  0  0  0
 95 96  1  0  0  0
 95 99  1  0  0  0
 95100  1  0  0  0
 95101  1  0  0  0
 96 97  1  0  0  0
 96 98  1  0  0  0
 97102  1  0  0  0
 97103  1  0  0  0
 97104  1  0  0  0
 98105  1  0  0  0
 98106  1  0  0  0
 98107  1  0  0  0
108109  1  0  0  0
108112  1  0  0  0
108113  1  0  0  0
108114  1  0  0  0
109110  1  0  0  0
109111  1  0  0  0
110115  1  0  0  0
110116  1  0  0  0
110117  1  0  0  0
111118  1  0  0  0
111119  1  0  0  0
111120  1  0  0  0
121122  1  0  0  0
121125  1  0  0  0
121126  1  0  0  0
121127  1  0  0  0
122123  1  0  0  0
122124  1  0  0  0
123128  1  0  0  0
123129  1  0  0  0
123130  1  0  0  0
124131  1  0  0  0
124132  1  0  0  0
124133  1  0  0  0
134135  1  0  0  0
134138  1  0  0  0
134139  1  0  0  0
134140  1  0  0  0
135136  1  0  0  0
135137  1  0  0  0
136141  1  0  0  0
136142  1  0  0  0
136143  1  0  0  0
137144  1  0  0  0
137145  1  0  0  0
137146  1  0  0  0
147148  1  0  0  0
147151  1  0  0  0
147152  1  0  0  0
147153  1  0  0  0
148149  1  0  0  0
148150  1  0  0  0
149154  1  0  0  0
149155  1  0  0  0
149156  1  0  0  0
150157  1  0  0  0
150158  1  0  0  0
150159  1  0  0  0
160161  1  0  0  0
160164  1  0  0  0
160165  1  0  0  0
160166  1  0  0  0
161162  1  0  0  0
161163  1  0  0  0
162167  1  0  0  0
162168  1  0  0  0
162169  1  0  0  0
163170  1  0  0  0
163171  1  0  0  0
163172  1  0  0  0
M  END
> <s_m_entry_id>
625

> <s_m_entry_name>
R_C3_Tunephos_1_5_SPE.1

> <program>
Gaussian 09, Revision D.01

> <chiral flag>
0

> <version>
0

> <s_m_Source_Path>
/home/sigmangrp/Documents/Schrodinger/S-35tBu-C3-Tunephos

> <s_m_Source_File>
S-35tBu-C3-Tunephos_ligand1_representatives.maegz

> <i_m_Source_File_Index>
4

> <s_m_job_name>
mmod_csearch_2382

> <r_mmod_Potential_Energy-OPLS-2005>
74.5250091552734

> <b_mmod_Minimization_Converged-OPLS-2005>
1

> <r_mmod_RMS_Derivative-OPLS-2005>
0.000968761334661394

> <i_mmod_Times_Found-OPLS-2005>
7

> <r_mmod_Relative_Potential_Energy-OPLS-2005>
5.15142822265625

> <i_mmod_Conformation-OPLS-2005>
109

> <i_mmod_Serial_Number-OPLS-2005>
6

> <r_canvas_Distance_To_Centroid>
0.0634285181201995

> <b_canvas_Is_Nearest_To_Centroid>
1

> <b_canvas_Is_Farthest_From_Centroid>
0

> <r_canvas_Max_Distance_From_Centroid>
0.180975365582854

> <r_canvas_Average_Distance_From_Centroid>
0.0935096953622997

> <r_canvas_Cluster_Variance>
0.00936641426649208

> <i_canvas_Canvas_Cluster_Index>
4

> <i_canvas_Canvas_Cluster_Size>
20

> <s_m_subgroup_title>
S-35tBu-C3-Tunephos_ligand1_representatives

> <s_m_subgroupid>
S-35tBu-C3-Tunephos_ligand1_representatives

> <b_m_subgroup_collapsed>
0

$$$$
