S-35tBu-C3-Tunephos
                    3D
 Structure written by MMmdl.
174179  0  0  1  0            999 V2000
   -4.0233   -1.5096    0.9296 Pd  0  0  0  0  0  0
   -5.0713   -0.1546    2.6172 P   0  0  0  0  0  0
   -2.2944    0.1331    0.6207 P   0  0  0  0  0  0
   -1.4229    3.5554    3.6916 O   0  0  0  0  0  0
   -4.2142    4.4216    3.1286 O   0  0  0  0  0  0
   -6.1657   -1.1280    3.8000 C   0  0  0  0  0  0
   -5.6899   -2.3420    4.3351 C   0  0  0  0  0  0
   -6.4681   -3.1122    5.2300 C   0  0  0  0  0  0
   -7.7554   -2.6400    5.5755 C   0  0  0  0  0  0
   -8.2677   -1.4309    5.0483 C   0  0  0  0  0  0
   -7.4566   -0.6932    4.1595 C   0  0  0  0  0  0
   -6.1902    1.1591    1.9080 C   0  0  0  0  0  0
   -6.6460    2.2372    2.6896 C   0  0  0  0  0  0
   -7.4934    3.2282    2.1431 C   0  0  0  0  0  0
   -7.8523    3.1258    0.7783 C   0  0  0  0  0  0
   -7.3935    2.0607   -0.0341 C   0  0  0  0  0  0
   -6.5709    1.0781    0.5572 C   0  0  0  0  0  0
   -3.8361    0.7499    3.7220 C   0  0  0  0  0  0
   -3.6104    0.2583    5.0288 C   0  0  0  0  0  0
   -2.6703    0.8525    5.8852 C   0  0  0  0  0  0
   -1.9320    1.9595    5.4466 C   0  0  0  0  0  0
   -2.1465    2.4794    4.1544 C   0  0  0  0  0  0
   -3.0943    1.8828    3.2809 C   0  0  0  0  0  0
   -3.2920    2.5243    1.9594 C   0  0  0  0  0  0
   -3.8160    3.8444    1.9469 C   0  0  0  0  0  0
   -3.9805    4.5457    0.7378 C   0  0  0  0  0  0
   -3.6096    3.9462   -0.4727 C   0  0  0  0  0  0
   -3.0920    2.6411   -0.4721 C   0  0  0  0  0  0
   -2.9302    1.9080    0.7270 C   0  0  0  0  0  0
   -1.4258    0.0190   -1.0462 C   0  0  0  0  0  0
   -2.1984   -0.1355   -2.2148 C   0  0  0  0  0  0
   -1.5993   -0.2233   -3.4927 C   0  0  0  0  0  0
   -0.1894   -0.1603   -3.5773 C   0  0  0  0  0  0
    0.6168   -0.0170   -2.4234 C   0  0  0  0  0  0
   -0.0229    0.0663   -1.1680 C   0  0  0  0  0  0
   -0.9263   -0.0030    1.8822 C   0  0  0  0  0  0
    0.0128    1.0305    2.0606 C   0  0  0  0  0  0
    1.0472    0.9187    3.0172 C   0  0  0  0  0  0
    1.0969   -0.2487    3.8134 C   0  0  0  0  0  0
    0.1540   -1.2926    3.6708 C   0  0  0  0  0  0
   -0.8479   -1.1564    2.6834 C   0  0  0  0  0  0
   -3.5470    5.6203    3.5024 C   0  0  0  0  0  0
   -4.7053   -2.6629    4.0360 H   0  0  0  0  0  0
   -8.3488   -3.2332    6.2509 H   0  0  0  0  0  0
   -7.8452    0.2198    3.7418 H   0  0  0  0  0  0
   -6.3208    2.2770    3.7175 H   0  0  0  0  0  0
   -8.4889    3.8899    0.3649 H   0  0  0  0  0  0
   -6.2150    0.2491   -0.0339 H   0  0  0  0  0  0
   -4.1543   -0.5930    5.4025 H   0  0  0  0  0  0
   -2.5082    0.4508    6.8744 H   0  0  0  0  0  0
   -1.1912    2.3912    6.1008 H   0  0  0  0  0  0
   -4.4037    5.5386    0.7397 H   0  0  0  0  0  0
   -3.7335    4.4807   -1.4029 H   0  0  0  0  0  0
   -2.8244    2.2135   -1.4237 H   0  0  0  0  0  0
   -3.2688   -0.1840   -2.0978 H   0  0  0  0  0  0
    0.2639   -0.2333   -4.5518 H   0  0  0  0  0  0
    0.5845    0.1588   -0.2840 H   0  0  0  0  0  0
   -0.0902    1.9072    1.4401 H   0  0  0  0  0  0
    1.8746   -0.3435    4.5543 H   0  0  0  0  0  0
   -1.5836   -1.9272    2.5244 H   0  0  0  0  0  0
   -2.9117    6.0329    2.7166 H   0  0  0  0  0  0
   -5.7226   -3.0944    1.1197 Cl  0  0  0  0  0  0
   -3.0040   -2.9095   -0.6313 Cl  0  0  0  0  0  0
   -2.7282    5.3503    4.7763 C   0  0  0  0  0  0
   -1.3503    4.7081    4.5208 C   0  0  0  0  0  0
   -0.8445    4.4910    5.4611 H   0  0  0  0  0  0
   -3.3141    4.7316    5.4569 H   0  0  0  0  0  0
   -2.5670    6.2942    5.2968 H   0  0  0  0  0  0
   -6.8860   -5.5869    5.3668 C   0  0  0  0  0  0
   -5.9628   -4.4405    5.8227 C   0  0  0  0  0  0
   -5.9671   -4.3574    7.3625 C   0  0  0  0  0  0
   -4.5246   -4.7900    5.3811 C   0  0  0  0  0  0
   -6.9137   -5.6569    4.2785 H   0  0  0  0  0  0
   -6.5473   -6.5501    5.7494 H   0  0  0  0  0  0
   -7.9118   -5.4491    5.7083 H   0  0  0  0  0  0
   -5.3414   -3.5354    7.7121 H   0  0  0  0  0  0
   -6.9669   -4.1989    7.7657 H   0  0  0  0  0  0
   -5.5857   -5.2746    7.8122 H   0  0  0  0  0  0
   -3.8126   -4.0257    5.6938 H   0  0  0  0  0  0
   -4.1933   -5.7316    5.8202 H   0  0  0  0  0  0
   -4.4507   -4.9040    4.2987 H   0  0  0  0  0  0
  -10.4217   -1.8009    6.4035 C   0  0  0  0  0  0
   -9.6696   -0.9000    5.4000 C   0  0  0  0  0  0
  -10.5205   -0.8110    4.1176 C   0  0  0  0  0  0
   -9.5487    0.5030    6.0290 C   0  0  0  0  0  0
  -10.5784   -2.8040    6.0049 H   0  0  0  0  0  0
  -11.4067   -1.3962    6.6379 H   0  0  0  0  0  0
   -9.8814   -1.8904    7.3467 H   0  0  0  0  0  0
  -10.0926   -0.1247    3.3865 H   0  0  0  0  0  0
  -10.6054   -1.7858    3.6357 H   0  0  0  0  0  0
  -11.5306   -0.4606    4.3313 H   0  0  0  0  0  0
   -9.1063    1.2258    5.3435 H   0  0  0  0  0  0
  -10.5238    0.8961    6.3181 H   0  0  0  0  0  0
   -8.9254    0.4790    6.9236 H   0  0  0  0  0  0
   -9.5659    4.3631    3.0023 C   0  0  0  0  0  0
   -8.0250    4.4034    2.9832 C   0  0  0  0  0  0
   -7.5521    5.7347    2.3671 C   0  0  0  0  0  0
   -7.5408    4.3653    4.4496 C   0  0  0  0  0  0
   -9.9267    3.4205    3.4161 H   0  0  0  0  0  0
   -9.9788    5.1682    3.6106 H   0  0  0  0  0  0
   -9.9933    4.4647    2.0051 H   0  0  0  0  0  0
   -6.4638    5.7765    2.3216 H   0  0  0  0  0  0
   -7.9247    5.8756    1.3530 H   0  0  0  0  0  0
   -7.8895    6.5888    2.9546 H   0  0  0  0  0  0
   -6.4538    4.4190    4.5169 H   0  0  0  0  0  0
   -7.9351    5.2066    5.0199 H   0  0  0  0  0  0
   -7.8647    3.4564    4.9577 H   0  0  0  0  0  0
   -8.6438    3.0976   -2.0267 C   0  0  0  0  0  0
   -7.7523    1.9408   -1.5259 C   0  0  0  0  0  0
   -8.5125    0.6220   -1.7686 C   0  0  0  0  0  0
   -6.4589    1.9490   -2.3658 C   0  0  0  0  0  0
   -8.1527    4.0642   -1.9079 H   0  0  0  0  0  0
   -8.8774    2.9878   -3.0862 H   0  0  0  0  0  0
   -9.5950    3.1322   -1.4942 H   0  0  0  0  0  0
   -7.9143   -0.2527   -1.5137 H   0  0  0  0  0  0
   -9.4219    0.5787   -1.1680 H   0  0  0  0  0  0
   -8.8043    0.5156   -2.8138 H   0  0  0  0  0  0
   -5.8035    1.1134   -2.1222 H   0  0  0  0  0  0
   -5.8908    2.8649   -2.1988 H   0  0  0  0  0  0
   -6.6743    1.8859   -3.4328 H   0  0  0  0  0  0
   -3.9515   -0.4161   -4.5150 C   0  0  0  0  0  0
   -2.4297   -0.3932   -4.7782 C   0  0  0  0  0  0
   -2.0520   -1.7229   -5.4595 C   0  0  0  0  0  0
   -2.1422    0.7777   -5.7393 C   0  0  0  0  0  0
   -4.2929    0.5111   -4.0541 H   0  0  0  0  0  0
   -4.5121   -0.5347   -5.4428 H   0  0  0  0  0  0
   -4.2364   -1.2455   -3.8661 H   0  0  0  0  0  0
   -1.0017   -1.7535   -5.7488 H   0  0  0  0  0  0
   -2.2290   -2.5677   -4.7925 H   0  0  0  0  0  0
   -2.6381   -1.8900   -6.3637 H   0  0  0  0  0  0
   -1.0969    0.8143   -6.0450 H   0  0  0  0  0  0
   -2.7370    0.7012   -6.6500 H   0  0  0  0  0  0
   -2.3781    1.7346   -5.2722 H   0  0  0  0  0  0
    2.6470    1.3653   -1.8659 C   0  0  0  0  0  0
    2.1542    0.0424   -2.4869 C   0  0  0  0  0  0
    2.7017   -0.0318   -3.9288 C   0  0  0  0  0  0
    2.7459   -1.1418   -1.6970 C   0  0  0  0  0  0
    2.3766    1.4530   -0.8137 H   0  0  0  0  0  0
    3.7323    1.4529   -1.9227 H   0  0  0  0  0  0
    2.2200    2.2246   -2.3844 H   0  0  0  0  0  0
    2.4229   -0.9661   -4.4176 H   0  0  0  0  0  0
    2.3367    0.7941   -4.5404 H   0  0  0  0  0  0
    3.7908    0.0193   -3.9419 H   0  0  0  0  0  0
    2.3965   -2.0938   -2.0985 H   0  0  0  0  0  0
    3.8353   -1.1467   -1.7398 H   0  0  0  0  0  0
    2.4680   -1.1135   -0.6431 H   0  0  0  0  0  0
    3.5026    1.4415    2.9222 C   0  0  0  0  0  0
    2.1041    2.0195    3.2143 C   0  0  0  0  0  0
    2.0519    2.5324    4.6667 C   0  0  0  0  0  0
    1.8943    3.2312    2.2798 C   0  0  0  0  0  0
    3.5604    1.0543    1.9040 H   0  0  0  0  0  0
    4.2787    2.1997    3.0299 H   0  0  0  0  0  0
    3.7581    0.6235    3.5955 H   0  0  0  0  0  0
    1.0620    2.9210    4.9047 H   0  0  0  0  0  0
    2.2755    1.7486    5.3898 H   0  0  0  0  0  0
    2.7698    3.3360    4.8326 H   0  0  0  0  0  0
    0.9271    3.7062    2.4474 H   0  0  0  0  0  0
    2.6554    3.9947    2.4423 H   0  0  0  0  0  0
    1.9504    2.9449    1.2291 H   0  0  0  0  0  0
    1.5956   -3.2304    4.3752 C   0  0  0  0  0  0
    0.2411   -2.5265    4.5864 C   0  0  0  0  0  0
   -0.8758   -3.5583    4.3139 C   0  0  0  0  0  0
    0.1141   -2.0834    6.0574 C   0  0  0  0  0  0
    2.4377   -2.5853    4.6254 H   0  0  0  0  0  0
    1.6822   -4.1242    4.9936 H   0  0  0  0  0  0
    1.7192   -3.5369    3.3357 H   0  0  0  0  0  0
   -1.8656   -3.1269    4.4661 H   0  0  0  0  0  0
   -0.8268   -3.9466    3.2957 H   0  0  0  0  0  0
   -0.7962   -4.4155    4.9833 H   0  0  0  0  0  0
   -0.8296   -1.5642    6.2281 H   0  0  0  0  0  0
    0.1475   -2.9362    6.7360 H   0  0  0  0  0  0
    0.9150   -1.4069    6.3547 H   0  0  0  0  0  0
   -0.7145    5.4269    4.0036 H   0  0  0  0  0  0
   -4.3144    6.3657    3.7118 H   0  0  0  0  0  0
  1 62  1  0  0  0
  1 63  1  0  0  0
  2 12  1  0  0  0
  2  6  1  0  0  0
  2 18  1  0  0  0
  3 30  1  0  0  0
  3 29  1  0  0  0
  3 36  1  0  0  0
  4 22  1  0  0  0
  4 65  1  0  0  0
  5 25  1  0  0  0
  5 42  1  0  0  0
  6 11  1  0  0  0
  6  7  2  0  0  0
  7  8  1  0  0  0
  7 43  1  0  0  0
  8  9  2  0  0  0
  8 70  1  0  0  0
  9 10  1  0  0  0
  9 44  1  0  0  0
 10 11  2  0  0  0
 10 83  1  0  0  0
 11 45  1  0  0  0
 12 13  2  0  0  0
 12 17  1  0  0  0
 13 14  1  0  0  0
 13 46  1  0  0  0
 14 15  2  0  0  0
 14 96  1  0  0  0
 15 47  1  0  0  0
 15 16  1  0  0  0
 16 17  2  0  0  0
 16109  1  0  0  0
 17 48  1  0  0  0
 18 23  1  0  0  0
 18 19  2  0  0  0
 19 20  1  0  0  0
 19 49  1  0  0  0
 20 21  2  0  0  0
 20 50  1  0  0  0
 21 22  1  0  0  0
 21 51  1  0  0  0
 22 23  2  0  0  0
 23 24  1  0  0  0
 24 29  2  0  0  0
 24 25  1  0  0  0
 25 26  2  0  0  0
 26 27  1  0  0  0
 26 52  1  0  0  0
 27 53  1  0  0  0
 27 28  2  0  0  0
 28 54  1  0  0  0
 28 29  1  0  0  0
 30 31  1  0  0  0
 30 35  2  0  0  0
 31 55  1  0  0  0
 31 32  2  0  0  0
 32 33  1  0  0  0
 32122  1  0  0  0
 33 56  1  0  0  0
 33 34  2  0  0  0
 34 35  1  0  0  0
 34135  1  0  0  0
 35 57  1  0  0  0
 36 37  2  0  0  0
 36 41  1  0  0  0
 37 58  1  0  0  0
 37 38  1  0  0  0
 38 39  2  0  0  0
 38148  1  0  0  0
 39 40  1  0  0  0
 39 59  1  0  0  0
 40 41  2  0  0  0
 40161  1  0  0  0
 41 60  1  0  0  0
 42 61  1  0  0  0
 42 64  1  0  0  0
 42174  1  0  0  0
 64 65  1  0  0  0
 64 67  1  0  0  0
 64 68  1  0  0  0
 65 66  1  0  0  0
 65173  1  0  0  0
 69 70  1  0  0  0
 69 73  1  0  0  0
 69 74  1  0  0  0
 69 75  1  0  0  0
 70 71  1  0  0  0
 70 72  1  0  0  0
 71 76  1  0  0  0
 71 77  1  0  0  0
 71 78  1  0  0  0
 72 79  1  0  0  0
 72 80  1  0  0  0
 72 81  1  0  0  0
 82 83  1  0  0  0
 82 86  1  0  0  0
 82 87  1  0  0  0
 82 88  1  0  0  0
 83 84  1  0  0  0
 83 85  1  0  0  0
 84 89  1  0  0  0
 84 90  1  0  0  0
 84 91  1  0  0  0
 85 92  1  0  0  0
 85 93  1  0  0  0
 85 94  1  0  0  0
 95 96  1  0  0  0
 95 99  1  0  0  0
 95100  1  0  0  0
 95101  1  0  0  0
 96 97  1  0  0  0
 96 98  1  0  0  0
 97102  1  0  0  0
 97103  1  0  0  0
 97104  1  0  0  0
 98105  1  0  0  0
 98106  1  0  0  0
 98107  1  0  0  0
108109  1  0  0  0
108112  1  0  0  0
108113  1  0  0  0
108114  1  0  0  0
109110  1  0  0  0
109111  1  0  0  0
110115  1  0  0  0
110116  1  0  0  0
110117  1  0  0  0
111118  1  0  0  0
111119  1  0  0  0
111120  1  0  0  0
121122  1  0  0  0
121125  1  0  0  0
121126  1  0  0  0
121127  1  0  0  0
122123  1  0  0  0
122124  1  0  0  0
123128  1  0  0  0
123129  1  0  0  0
123130  1  0  0  0
124131  1  0  0  0
124132  1  0  0  0
124133  1  0  0  0
134135  1  0  0  0
134138  1  0  0  0
134139  1  0  0  0
134140  1  0  0  0
135136  1  0  0  0
135137  1  0  0  0
136141  1  0  0  0
136142  1  0  0  0
136143  1  0  0  0
137144  1  0  0  0
137145  1  0  0  0
137146  1  0  0  0
147148  1  0  0  0
147151  1  0  0  0
147152  1  0  0  0
147153  1  0  0  0
148149  1  0  0  0
148150  1  0  0  0
149154  1  0  0  0
149155  1  0  0  0
149156  1  0  0  0
150157  1  0  0  0
150158  1  0  0  0
150159  1  0  0  0
160161  1  0  0  0
160164  1  0  0  0
160165  1  0  0  0
160166  1  0  0  0
161162  1  0  0  0
161163  1  0  0  0
162167  1  0  0  0
162168  1  0  0  0
162169  1  0  0  0
163170  1  0  0  0
163171  1  0  0  0
163172  1  0  0  0
M  END
> <s_m_entry_id>
623

> <s_m_entry_name>
R_C3_Tunephos_1_5_SPE.1

> <program>
Gaussian 09, Revision D.01

> <chiral flag>
0

> <version>
0

> <s_m_Source_Path>
/home/sigmangrp/Documents/Schrodinger/S-35tBu-C3-Tunephos

> <s_m_Source_File>
S-35tBu-C3-Tunephos_ligand1_representatives.maegz

> <i_m_Source_File_Index>
2

> <s_m_job_name>
mmod_csearch_2382

> <r_mmod_Potential_Energy-OPLS-2005>
70.2477035522461

> <b_mmod_Minimization_Converged-OPLS-2005>
1

> <r_mmod_RMS_Derivative-OPLS-2005>
0.000757046509534121

> <i_mmod_Times_Found-OPLS-2005>
3

> <r_mmod_Relative_Potential_Energy-OPLS-2005>
0.874122619628906

> <i_mmod_Conformation-OPLS-2005>
47

> <i_mmod_Serial_Number-OPLS-2005>
6

> <r_canvas_Distance_To_Centroid>
0.0973143224015189

> <b_canvas_Is_Nearest_To_Centroid>
1

> <b_canvas_Is_Farthest_From_Centroid>
0

> <r_canvas_Max_Distance_From_Centroid>
0.174053355238996

> <r_canvas_Average_Distance_From_Centroid>
0.125967062580424

> <r_canvas_Cluster_Variance>
0.0162215355782642

> <i_canvas_Canvas_Cluster_Index>
2

> <i_canvas_Canvas_Cluster_Size>
66

> <s_m_subgroup_title>
S-35tBu-C3-Tunephos_ligand1_representatives

> <s_m_subgroupid>
S-35tBu-C3-Tunephos_ligand1_representatives

> <b_m_subgroup_collapsed>
0

$$$$
