S-35tBu-C3-Tunephos
                    3D
 Structure written by MMmdl.
174179  0  0  1  0            999 V2000
   -3.9708   -1.4477    1.0217 Pd  0  0  0  0  0  0
   -5.0523   -0.0875    2.6826 P   0  0  0  0  0  0
   -2.2537    0.2058    0.6969 P   0  0  0  0  0  0
   -1.3853    3.5831    3.8020 O   0  0  0  0  0  0
   -4.1599    4.4664    3.2552 O   0  0  0  0  0  0
   -6.1447   -1.0779    3.8542 C   0  0  0  0  0  0
   -5.6626   -2.3012    4.3594 C   0  0  0  0  0  0
   -6.4306   -3.1043    5.2296 C   0  0  0  0  0  0
   -7.7218   -2.6522    5.5929 C   0  0  0  0  0  0
   -8.2414   -1.4305    5.1001 C   0  0  0  0  0  0
   -7.4333   -0.6562    4.2369 C   0  0  0  0  0  0
   -6.1656    1.1920    1.8996 C   0  0  0  0  0  0
   -6.7392    2.2576    2.6206 C   0  0  0  0  0  0
   -7.5987    3.1874    1.9906 C   0  0  0  0  0  0
   -7.8220    3.0554    0.5981 C   0  0  0  0  0  0
   -7.2398    2.0093   -0.1542 C   0  0  0  0  0  0
   -6.4237    1.0759    0.5220 C   0  0  0  0  0  0
   -3.8245    0.8034    3.8032 C   0  0  0  0  0  0
   -3.6123    0.3022    5.1089 C   0  0  0  0  0  0
   -2.6656    0.8767    5.9716 C   0  0  0  0  0  0
   -1.9075    1.9733    5.5409 C   0  0  0  0  0  0
   -2.1122    2.5046    4.2519 C   0  0  0  0  0  0
   -3.0639    1.9258    3.3715 C   0  0  0  0  0  0
   -3.2531    2.5827    2.0577 C   0  0  0  0  0  0
   -3.7706    3.9048    2.0638 C   0  0  0  0  0  0
   -3.9253    4.6273    0.8663 C   0  0  0  0  0  0
   -3.5406    4.0492   -0.3499 C   0  0  0  0  0  0
   -3.0228    2.7442   -0.3663 C   0  0  0  0  0  0
   -2.8809    1.9850    0.8199 C   0  0  0  0  0  0
   -1.4663    0.0673   -1.0066 C   0  0  0  0  0  0
   -2.3154   -0.0072   -2.1282 C   0  0  0  0  0  0
   -1.8111   -0.1308   -3.4395 C   0  0  0  0  0  0
   -0.4086   -0.1965   -3.6086 C   0  0  0  0  0  0
    0.4753   -0.1433   -2.5059 C   0  0  0  0  0  0
   -0.0730   -0.0094   -1.2072 C   0  0  0  0  0  0
   -0.8596    0.0415    1.9286 C   0  0  0  0  0  0
   -0.8464   -1.0849    2.7703 C   0  0  0  0  0  0
    0.1654   -1.2646    3.7397 C   0  0  0  0  0  0
    1.1903   -0.2942    3.8243 C   0  0  0  0  0  0
    1.2106    0.8455    2.9836 C   0  0  0  0  0  0
    0.1594    1.0063    2.0515 C   0  0  0  0  0  0
   -3.4903    5.6604    3.6408 C   0  0  0  0  0  0
   -4.6760   -2.6247    4.0657 H   0  0  0  0  0  0
   -8.3215   -3.2506    6.2552 H   0  0  0  0  0  0
   -7.8158    0.2760    3.8585 H   0  0  0  0  0  0
   -6.5213    2.3440    3.6749 H   0  0  0  0  0  0
   -8.4499    3.7593    0.0787 H   0  0  0  0  0  0
   -5.9694    0.2524   -0.0028 H   0  0  0  0  0  0
   -4.1697   -0.5429    5.4770 H   0  0  0  0  0  0
   -2.5142    0.4679    6.9597 H   0  0  0  0  0  0
   -1.1636    2.3918    6.2003 H   0  0  0  0  0  0
   -4.3444    5.6219    0.8824 H   0  0  0  0  0  0
   -3.6503    4.6015   -1.2714 H   0  0  0  0  0  0
   -2.7383    2.3419   -1.3232 H   0  0  0  0  0  0
   -3.3811    0.0406   -1.9681 H   0  0  0  0  0  0
    0.0156   -0.2988   -4.5934 H   0  0  0  0  0  0
    0.5682    0.0193   -0.3431 H   0  0  0  0  0  0
   -1.6413   -1.8027    2.6557 H   0  0  0  0  0  0
    1.9667   -0.4451    4.5552 H   0  0  0  0  0  0
    0.1276    1.8740    1.4093 H   0  0  0  0  0  0
   -2.8518    6.0783    2.8604 H   0  0  0  0  0  0
   -5.6572   -3.0488    1.1952 Cl  0  0  0  0  0  0
   -2.9212   -2.8568   -0.5119 Cl  0  0  0  0  0  0
   -2.6739    5.3739    4.9122 C   0  0  0  0  0  0
   -1.3019    4.7237    4.6474 C   0  0  0  0  0  0
   -0.7953    4.4901    5.5834 H   0  0  0  0  0  0
   -3.2634    4.7526    5.5872 H   0  0  0  0  0  0
   -2.5051    6.3116    5.4413 H   0  0  0  0  0  0
   -6.8228   -5.2282    6.6296 C   0  0  0  0  0  0
   -5.8397   -4.4292    5.7465 C   0  0  0  0  0  0
   -4.5856   -4.1311    6.5911 C   0  0  0  0  0  0
   -5.4534   -5.3267    4.5529 C   0  0  0  0  0  0
   -7.7332   -5.4843    6.0861 H   0  0  0  0  0  0
   -6.3799   -6.1656    6.9674 H   0  0  0  0  0  0
   -7.1059   -4.6727    7.5244 H   0  0  0  0  0  0
   -3.8131   -3.6256    6.0133 H   0  0  0  0  0  0
   -4.8282   -3.4894    7.4389 H   0  0  0  0  0  0
   -4.1437   -5.0460    6.9869 H   0  0  0  0  0  0
   -4.6858   -4.8767    3.9239 H   0  0  0  0  0  0
   -5.0653   -6.2897    4.8859 H   0  0  0  0  0  0
   -6.3172   -5.5238    3.9165 H   0  0  0  0  0  0
  -10.4507   -0.5783    4.2120 C   0  0  0  0  0  0
   -9.6430   -0.9173    5.4831 C   0  0  0  0  0  0
   -9.4936    0.3478    6.3474 C   0  0  0  0  0  0
  -10.4666   -1.9461    6.2888 C   0  0  0  0  0  0
  -10.5315   -1.4467    3.5571 H   0  0  0  0  0  0
  -11.4635   -0.2576    4.4570 H   0  0  0  0  0  0
  -10.0012    0.2266    3.6309 H   0  0  0  0  0  0
   -8.9345    0.1359    7.2595 H   0  0  0  0  0  0
   -8.9599    1.1360    5.8188 H   0  0  0  0  0  0
  -10.4633    0.7512    6.6401 H   0  0  0  0  0  0
   -9.9990   -2.1815    7.2454 H   0  0  0  0  0  0
  -11.4635   -1.5661    6.5140 H   0  0  0  0  0  0
  -10.5962   -2.8768    5.7349 H   0  0  0  0  0  0
   -9.2060    5.1981    1.9959 C   0  0  0  0  0  0
   -8.2715    4.2924    2.8274 C   0  0  0  0  0  0
   -7.1998    5.1910    3.4685 C   0  0  0  0  0  0
   -9.1175    3.6452    3.9408 C   0  0  0  0  0  0
  -10.0123    4.6275    1.5333 H   0  0  0  0  0  0
   -9.6741    5.9617    2.6179 H   0  0  0  0  0  0
   -8.6629    5.7212    1.2080 H   0  0  0  0  0  0
   -6.5610    4.6337    4.1533 H   0  0  0  0  0  0
   -6.5570    5.6353    2.7079 H   0  0  0  0  0  0
   -7.6463    6.0046    4.0403 H   0  0  0  0  0  0
   -8.5024    3.0706    4.6318 H   0  0  0  0  0  0
   -9.6436    4.3953    4.5318 H   0  0  0  0  0  0
   -9.8648    2.9681    3.5254 H   0  0  0  0  0  0
   -9.0173    1.8415   -1.9363 C   0  0  0  0  0  0
   -7.5007    1.9207   -1.6692 C   0  0  0  0  0  0
   -6.8492    0.6811   -2.3218 C   0  0  0  0  0  0
   -6.9198    3.1711   -2.3567 C   0  0  0  0  0  0
   -9.5475    2.7276   -1.5885 H   0  0  0  0  0  0
   -9.2301    1.7430   -3.0011 H   0  0  0  0  0  0
   -9.4584    0.9802   -1.4330 H   0  0  0  0  0  0
   -5.7659    0.6873   -2.2046 H   0  0  0  0  0  0
   -7.2313   -0.2466   -1.8937 H   0  0  0  0  0  0
   -7.0504    0.6439   -3.3930 H   0  0  0  0  0  0
   -5.8473    3.2526   -2.1766 H   0  0  0  0  0  0
   -7.0707    3.1411   -3.4361 H   0  0  0  0  0  0
   -7.3803    4.0892   -1.9920 H   0  0  0  0  0  0
   -3.5573    1.1522   -4.7072 C   0  0  0  0  0  0
   -2.7936   -0.1840   -4.6233 C   0  0  0  0  0  0
   -3.7968   -1.3381   -4.4190 C   0  0  0  0  0  0
   -2.0915   -0.4128   -5.9794 C   0  0  0  0  0  0
   -2.8702    1.9864   -4.8537 H   0  0  0  0  0  0
   -4.2631    1.1578   -5.5383 H   0  0  0  0  0  0
   -4.1252    1.3588   -3.8009 H   0  0  0  0  0  0
   -3.2785   -2.2927   -4.3185 H   0  0  0  0  0  0
   -4.4085   -1.2074   -3.5270 H   0  0  0  0  0  0
   -4.4825   -1.4249   -5.2623 H   0  0  0  0  0  0
   -1.5342   -1.3504   -5.9889 H   0  0  0  0  0  0
   -2.8127   -0.4623   -6.7958 H   0  0  0  0  0  0
   -1.3998    0.3957   -6.2184 H   0  0  0  0  0  0
    2.3145   -1.5990   -3.4163 C   0  0  0  0  0  0
    1.9922   -0.2455   -2.7530 C   0  0  0  0  0  0
    2.8225   -0.1503   -1.4558 C   0  0  0  0  0  0
    2.4455    0.9015   -3.6785 C   0  0  0  0  0  0
    1.8251   -1.7112   -4.3835 H   0  0  0  0  0  0
    3.3854   -1.7170   -3.5839 H   0  0  0  0  0  0
    1.9869   -2.4290   -2.7889 H   0  0  0  0  0  0
    2.6593    0.8019   -0.9526 H   0  0  0  0  0  0
    2.5776   -0.9511   -0.7567 H   0  0  0  0  0  0
    3.8910   -0.2234   -1.6603 H   0  0  0  0  0  0
    2.2069    1.8726   -3.2430 H   0  0  0  0  0  0
    3.5221    0.8742   -3.8492 H   0  0  0  0  0  0
    1.9677    0.8578   -4.6568 H   0  0  0  0  0  0
    1.4622   -3.2964    4.4602 C   0  0  0  0  0  0
    0.1801   -2.4738    4.6925 C   0  0  0  0  0  0
   -1.0285   -3.4145    4.4898 C   0  0  0  0  0  0
    0.1420   -1.9809    6.1528 C   0  0  0  0  0  0
    2.3638   -2.7182    4.6614 H   0  0  0  0  0  0
    1.4951   -4.1756    5.1043 H   0  0  0  0  0  0
    1.5228   -3.6432    3.4279 H   0  0  0  0  0  0
   -1.9721   -2.8929    4.6524 H   0  0  0  0  0  0
   -1.0442   -3.8415    3.4861 H   0  0  0  0  0  0
   -1.0024   -4.2513    5.1885 H   0  0  0  0  0  0
   -0.7476   -1.3781    6.3376 H   0  0  0  0  0  0
    0.1255   -2.8144    6.8554 H   0  0  0  0  0  0
    1.0072   -1.3684    6.4051 H   0  0  0  0  0  0
    1.7429    3.2661    3.4327 C   0  0  0  0  0  0
    2.3343    1.8973    3.0538 C   0  0  0  0  0  0
    3.0246    2.0066    1.6812 C   0  0  0  0  0  0
    3.4213    1.5537    4.0958 C   0  0  0  0  0  0
    1.2348    3.2148    4.3958 H   0  0  0  0  0  0
    2.5154    4.0316    3.5076 H   0  0  0  0  0  0
    1.0170    3.6138    2.6976 H   0  0  0  0  0  0
    3.4385    1.0451    1.3755 H   0  0  0  0  0  0
    2.3355    2.3317    0.9019 H   0  0  0  0  0  0
    3.8442    2.7254    1.7013 H   0  0  0  0  0  0
    3.9047    0.6015    3.8737 H   0  0  0  0  0  0
    4.2056    2.3111    4.1145 H   0  0  0  0  0  0
    3.0097    1.4996    5.1043 H   0  0  0  0  0  0
   -0.6616    5.4445    4.1386 H   0  0  0  0  0  0
   -4.2548    6.4069    3.8566 H   0  0  0  0  0  0
  1 62  1  0  0  0
  1 63  1  0  0  0
  2 12  1  0  0  0
  2  6  1  0  0  0
  2 18  1  0  0  0
  3 30  1  0  0  0
  3 29  1  0  0  0
  3 36  1  0  0  0
  4 22  1  0  0  0
  4 65  1  0  0  0
  5 25  1  0  0  0
  5 42  1  0  0  0
  6 11  1  0  0  0
  6  7  2  0  0  0
  7  8  1  0  0  0
  7 43  1  0  0  0
  8  9  2  0  0  0
  8 70  1  0  0  0
  9 10  1  0  0  0
  9 44  1  0  0  0
 10 11  2  0  0  0
 10 83  1  0  0  0
 11 45  1  0  0  0
 12 13  2  0  0  0
 12 17  1  0  0  0
 13 14  1  0  0  0
 13 46  1  0  0  0
 14 15  2  0  0  0
 14 96  1  0  0  0
 15 47  1  0  0  0
 15 16  1  0  0  0
 16 17  2  0  0  0
 16109  1  0  0  0
 17 48  1  0  0  0
 18 23  1  0  0  0
 18 19  2  0  0  0
 19 20  1  0  0  0
 19 49  1  0  0  0
 20 21  2  0  0  0
 20 50  1  0  0  0
 21 22  1  0  0  0
 21 51  1  0  0  0
 22 23  2  0  0  0
 23 24  1  0  0  0
 24 29  2  0  0  0
 24 25  1  0  0  0
 25 26  2  0  0  0
 26 27  1  0  0  0
 26 52  1  0  0  0
 27 53  1  0  0  0
 27 28  2  0  0  0
 28 54  1  0  0  0
 28 29  1  0  0  0
 30 31  1  0  0  0
 30 35  2  0  0  0
 31 55  1  0  0  0
 31 32  2  0  0  0
 32 33  1  0  0  0
 32122  1  0  0  0
 33 56  1  0  0  0
 33 34  2  0  0  0
 34 35  1  0  0  0
 34135  1  0  0  0
 35 57  1  0  0  0
 36 37  2  0  0  0
 36 41  1  0  0  0
 37 58  1  0  0  0
 37 38  1  0  0  0
 38 39  2  0  0  0
 38148  1  0  0  0
 39 40  1  0  0  0
 39 59  1  0  0  0
 40 41  2  0  0  0
 40161  1  0  0  0
 41 60  1  0  0  0
 42 61  1  0  0  0
 42 64  1  0  0  0
 42174  1  0  0  0
 64 65  1  0  0  0
 64 67  1  0  0  0
 64 68  1  0  0  0
 65 66  1  0  0  0
 65173  1  0  0  0
 69 70  1  0  0  0
 69 73  1  0  0  0
 69 74  1  0  0  0
 69 75  1  0  0  0
 70 71  1  0  0  0
 70 72  1  0  0  0
 71 76  1  0  0  0
 71 77  1  0  0  0
 71 78  1  0  0  0
 72 79  1  0  0  0
 72 80  1  0  0  0
 72 81  1  0  0  0
 82 83  1  0  0  0
 82 86  1  0  0  0
 82 87  1  0  0  0
 82 88  1  0  0  0
 83 84  1  0  0  0
 83 85  1  0  0  0
 84 89  1  0  0  0
 84 90  1  0  0  0
 84 91  1  0  0  0
 85 92  1  0  0  0
 85 93  1  0  0  0
 85 94  1  0  0  0
 95 96  1  0  0  0
 95 99  1  0  0  0
 95100  1  0  0  0
 95101  1  0  0  0
 96 97  1  0  0  0
 96 98  1  0  0  0
 97102  1  0  0  0
 97103  1  0  0  0
 97104  1  0  0  0
 98105  1  0  0  0
 98106  1  0  0  0
 98107  1  0  0  0
108109  1  0  0  0
108112  1  0  0  0
108113  1  0  0  0
108114  1  0  0  0
109110  1  0  0  0
109111  1  0  0  0
110115  1  0  0  0
110116  1  0  0  0
110117  1  0  0  0
111118  1  0  0  0
111119  1  0  0  0
111120  1  0  0  0
121122  1  0  0  0
121125  1  0  0  0
121126  1  0  0  0
121127  1  0  0  0
122123  1  0  0  0
122124  1  0  0  0
123128  1  0  0  0
123129  1  0  0  0
123130  1  0  0  0
124131  1  0  0  0
124132  1  0  0  0
124133  1  0  0  0
134135  1  0  0  0
134138  1  0  0  0
134139  1  0  0  0
134140  1  0  0  0
135136  1  0  0  0
135137  1  0  0  0
136141  1  0  0  0
136142  1  0  0  0
136143  1  0  0  0
137144  1  0  0  0
137145  1  0  0  0
137146  1  0  0  0
147148  1  0  0  0
147151  1  0  0  0
147152  1  0  0  0
147153  1  0  0  0
148149  1  0  0  0
148150  1  0  0  0
149154  1  0  0  0
149155  1  0  0  0
149156  1  0  0  0
150157  1  0  0  0
150158  1  0  0  0
150159  1  0  0  0
160161  1  0  0  0
160164  1  0  0  0
160165  1  0  0  0
160166  1  0  0  0
161162  1  0  0  0
161163  1  0  0  0
162167  1  0  0  0
162168  1  0  0  0
162169  1  0  0  0
163170  1  0  0  0
163171  1  0  0  0
163172  1  0  0  0
M  END
> <s_m_entry_id>
624

> <s_m_entry_name>
R_C3_Tunephos_1_5_SPE.1

> <program>
Gaussian 09, Revision D.01

> <chiral flag>
0

> <version>
0

> <s_m_Source_Path>
/home/sigmangrp/Documents/Schrodinger/S-35tBu-C3-Tunephos

> <s_m_Source_File>
S-35tBu-C3-Tunephos_ligand1_representatives.maegz

> <i_m_Source_File_Index>
3

> <s_m_job_name>
mmod_csearch_2382

> <r_mmod_Potential_Energy-OPLS-2005>
78.7231292724609

> <b_mmod_Minimization_Converged-OPLS-2005>
1

> <r_mmod_RMS_Derivative-OPLS-2005>
0.000965645129326731

> <i_mmod_Times_Found-OPLS-2005>
2

> <r_mmod_Relative_Potential_Energy-OPLS-2005>
9.34954833984375

> <i_mmod_Conformation-OPLS-2005>
180

> <i_mmod_Serial_Number-OPLS-2005>
6

> <r_canvas_Distance_To_Centroid>
0.0488731632381678

> <b_canvas_Is_Nearest_To_Centroid>
1

> <b_canvas_Is_Farthest_From_Centroid>
0

> <r_canvas_Max_Distance_From_Centroid>
0.0961480224877596

> <r_canvas_Average_Distance_From_Centroid>
0.0750866440683603

> <r_canvas_Cluster_Variance>
0.00582933504173432

> <i_canvas_Canvas_Cluster_Index>
3

> <i_canvas_Canvas_Cluster_Size>
10

> <s_m_subgroup_title>
S-35tBu-C3-Tunephos_ligand1_representatives

> <s_m_subgroupid>
S-35tBu-C3-Tunephos_ligand1_representatives

> <b_m_subgroup_collapsed>
0

$$$$
