%nprocs=16
%mem=18GB
%chk=S-35tBu-C3-Tunephos_3.chk
# PBEPBE gen 6D pseudo=read scf=maxcycles=500 denfit int=(grid=ultrafine) empiricaldispersion=GD3BJ opt freq=noraman

title 

0 1
Pd    -3.97080    -1.44770    1.02170
P    -5.05230    -0.08750    2.68260
P    -2.25370    0.20580    0.69690
O    -1.38530    3.58310    3.80200
O    -4.15990    4.46640    3.25520
C    -6.14470    -1.07790    3.85420
C    -5.66260    -2.30120    4.35940
C    -6.43060    -3.10430    5.22960
C    -7.72180    -2.65220    5.59290
C    -8.24140    -1.43050    5.10010
C    -7.43330    -0.65620    4.23690
C    -6.16560    1.19200    1.89960
C    -6.73920    2.25760    2.62060
C    -7.59870    3.18740    1.99060
C    -7.82200    3.05540    0.59810
C    -7.23980    2.00930    -0.15420
C    -6.42370    1.07590    0.52200
C    -3.82450    0.80340    3.80320
C    -3.61230    0.30220    5.10890
C    -2.66560    0.87670    5.97160
C    -1.90750    1.97330    5.54090
C    -2.11220    2.50460    4.25190
C    -3.06390    1.92580    3.37150
C    -3.25310    2.58270    2.05770
C    -3.77060    3.90480    2.06380
C    -3.92530    4.62730    0.86630
C    -3.54060    4.04920    -0.34990
C    -3.02280    2.74420    -0.36630
C    -2.88090    1.98500    0.81990
C    -1.46630    0.06730    -1.00660
C    -2.31540    -0.00720    -2.12820
C    -1.81110    -0.13080    -3.43950
C    -0.40860    -0.19650    -3.60860
C    0.47530    -0.14330    -2.50590
C    -0.07300    -0.00940    -1.20720
C    -0.85960    0.04150    1.92860
C    -0.84640    -1.08490    2.77030
C    0.16540    -1.26460    3.73970
C    1.19030    -0.29420    3.82430
C    1.21060    0.84550    2.98360
C    0.15940    1.00630    2.05150
C    -3.49030    5.66040    3.64080
H    -4.67600    -2.62470    4.06570
H    -8.32150    -3.25060    6.25520
H    -7.81580    0.27600    3.85850
H    -6.52130    2.34400    3.67490
H    -8.44990    3.75930    0.07870
H    -5.96940    0.25240    -0.00280
H    -4.16970    -0.54290    5.47700
H    -2.51420    0.46790    6.95970
H    -1.16360    2.39180    6.20030
H    -4.34440    5.62190    0.88240
H    -3.65030    4.60150    -1.27140
H    -2.73830    2.34190    -1.32320
H    -3.38110    0.04060    -1.96810
H    0.01560    -0.29880    -4.59340
H    0.56820    0.01930    -0.34310
H    -1.64130    -1.80270    2.65570
H    1.96670    -0.44510    4.55520
H    0.12760    1.87400    1.40930
H    -2.85180    6.07830    2.86040
Cl    -5.65720    -3.04880    1.19520
Cl    -2.92120    -2.85680    -0.51190
C    -2.67390    5.37390    4.91220
C    -1.30190    4.72370    4.64740
H    -0.79530    4.49010    5.58340
H    -3.26340    4.75260    5.58720
H    -2.50510    6.31160    5.44130
C    -6.82280    -5.22820    6.62960
C    -5.83970    -4.42920    5.74650
C    -4.58560    -4.13110    6.59110
C    -5.45340    -5.32670    4.55290
H    -7.73320    -5.48430    6.08610
H    -6.37990    -6.16560    6.96740
H    -7.10590    -4.67270    7.52440
H    -3.81310    -3.62560    6.01330
H    -4.82820    -3.48940    7.43890
H    -4.14370    -5.04600    6.98690
H    -4.68580    -4.87670    3.92390
H    -5.06530    -6.28970    4.88590
H    -6.31720    -5.52380    3.91650
C    -10.45070    -0.57830    4.21200
C    -9.64300    -0.91730    5.48310
C    -9.49360    0.34780    6.34740
C    -10.46660    -1.94610    6.28880
H    -10.53150    -1.44670    3.55710
H    -11.46350    -0.25760    4.45700
H    -10.00120    0.22660    3.63090
H    -8.93450    0.13590    7.25950
H    -8.95990    1.13600    5.81880
H    -10.46330    0.75120    6.64010
H    -9.99900    -2.18150    7.24540
H    -11.46350    -1.56610    6.51400
H    -10.59620    -2.87680    5.73490
C    -9.20600    5.19810    1.99590
C    -8.27150    4.29240    2.82740
C    -7.19980    5.19100    3.46850
C    -9.11750    3.64520    3.94080
H    -10.01230    4.62750    1.53330
H    -9.67410    5.96170    2.61790
H    -8.66290    5.72120    1.20800
H    -6.56100    4.63370    4.15330
H    -6.55700    5.63530    2.70790
H    -7.64630    6.00460    4.04030
H    -8.50240    3.07060    4.63180
H    -9.64360    4.39530    4.53180
H    -9.86480    2.96810    3.52540
C    -9.01730    1.84150    -1.93630
C    -7.50070    1.92070    -1.66920
C    -6.84920    0.68110    -2.32180
C    -6.91980    3.17110    -2.35670
H    -9.54750    2.72760    -1.58850
H    -9.23010    1.74300    -3.00110
H    -9.45840    0.98020    -1.43300
H    -5.76590    0.68730    -2.20460
H    -7.23130    -0.24660    -1.89370
H    -7.05040    0.64390    -3.39300
H    -5.84730    3.25260    -2.17660
H    -7.07070    3.14110    -3.43610
H    -7.38030    4.08920    -1.99200
C    -3.55730    1.15220    -4.70720
C    -2.79360    -0.18400    -4.62330
C    -3.79680    -1.33810    -4.41900
C    -2.09150    -0.41280    -5.97940
H    -2.87020    1.98640    -4.85370
H    -4.26310    1.15780    -5.53830
H    -4.12520    1.35880    -3.80090
H    -3.27850    -2.29270    -4.31850
H    -4.40850    -1.20740    -3.52700
H    -4.48250    -1.42490    -5.26230
H    -1.53420    -1.35040    -5.98890
H    -2.81270    -0.46230    -6.79580
H    -1.39980    0.39570    -6.21840
C    2.31450    -1.59900    -3.41630
C    1.99220    -0.24550    -2.75300
C    2.82250    -0.15030    -1.45580
C    2.44550    0.90150    -3.67850
H    1.82510    -1.71120    -4.38350
H    3.38540    -1.71700    -3.58390
H    1.98690    -2.42900    -2.78890
H    2.65930    0.80190    -0.95260
H    2.57760    -0.95110    -0.75670
H    3.89100    -0.22340    -1.66030
H    2.20690    1.87260    -3.24300
H    3.52210    0.87420    -3.84920
H    1.96770    0.85780    -4.65680
C    1.46220    -3.29640    4.46020
C    0.18010    -2.47380    4.69250
C    -1.02850    -3.41450    4.48980
C    0.14200    -1.98090    6.15280
H    2.36380    -2.71820    4.66140
H    1.49510    -4.17560    5.10430
H    1.52280    -3.64320    3.42790
H    -1.97210    -2.89290    4.65240
H    -1.04420    -3.84150    3.48610
H    -1.00240    -4.25130    5.18850
H    -0.74760    -1.37810    6.33760
H    0.12550    -2.81440    6.85540
H    1.00720    -1.36840    6.40510
C    1.74290    3.26610    3.43270
C    2.33430    1.89730    3.05380
C    3.02460    2.00660    1.68120
C    3.42130    1.55370    4.09580
H    1.23480    3.21480    4.39580
H    2.51540    4.03160    3.50760
H    1.01700    3.61380    2.69760
H    3.43850    1.04510    1.37550
H    2.33550    2.33170    0.90190
H    3.84420    2.72540    1.70130
H    3.90470    0.60150    3.87370
H    4.20560    2.31110    4.11450
H    3.00970    1.49960    5.10430
H    -0.66160    5.44450    4.13860
H    -4.25480    6.40690    3.85660

C O Cl H P 0
6-31G(d)
****
Pd 0
LANL2DZ
****

Pd 0
LANL2DZ

