%nprocs=16
%mem=18GB
%chk=S-35tBu-C3-Tunephos_1.chk
# PBEPBE gen 6D pseudo=read scf=maxcycles=500 denfit int=(grid=ultrafine) empiricaldispersion=GD3BJ opt freq=noraman

title 

0 1
Pd    -4.05980    -1.46970    0.96940
P    -5.08990    -0.09260    2.65190
P    -2.30600    0.14400    0.65490
O    -1.32060    3.49040    3.74250
O    -4.07440    4.46070    3.21510
C    -6.18050    -1.06200    3.84260
C    -5.73410    -2.31860    4.29930
C    -6.50590    -3.10210    5.18720
C    -7.75340    -2.59430    5.61540
C    -8.23380    -1.33790    5.17630
C    -7.42760    -0.58550    4.29310
C    -6.18340    1.21660    1.88950
C    -6.72230    2.29150    2.62320
C    -7.56740    3.24510    2.00970
C    -7.81030    3.12750    0.61930
C    -7.25590    2.07710    -0.14760
C    -6.45700    1.11820    0.51350
C    -3.83440    0.77490    3.76300
C    -3.62170    0.26560    5.06540
C    -2.65860    0.82020    5.92300
C    -1.88160    1.90240    5.48940
C    -2.08210    2.43930    4.20200
C    -3.05570    1.88470    3.32900
C    -3.24130    2.54440    2.01580
C    -3.72300    3.87970    2.02140
C    -3.88260    4.59660    0.82100
C    -3.54230    3.99770    -0.39880
C    -3.05810    2.67980    -0.41520
C    -2.90420    1.93110    0.77570
C    -1.46580    0.02150    -1.02450
C    -2.25980    -0.09100    -2.18230
C    -1.69010    -0.18160    -3.47080
C    -0.27840    -0.16380    -3.58270
C    0.54990    -0.06570    -2.43820
C    -0.06490    0.02080    -1.17020
C    -0.91980    -0.02840    1.89110
C    -0.84310    -1.19130    2.67710
C    0.17570    -1.36160    3.63870
C    1.14170    -0.33580    3.77830
C    1.09330    0.84250    2.99650
C    0.04170    0.98490    2.06240
C    -3.35730    5.63290    3.58170
H    -4.77850    -2.66510    3.94100
H    -8.33960    -3.19590    6.28960
H    -7.77910    0.37340    3.95410
H    -6.48920    2.36710    3.67500
H    -8.43200    3.84630    0.11260
H    -6.02680    0.28890    -0.02260
H    -4.19080    -0.57230    5.43320
H    -2.50670    0.40450    6.90810
H    -1.12230    2.30120    6.14330
H    -4.27490    5.60200    0.83760
H    -3.66000    4.54440    -1.32260
H    -2.80860    2.25680    -1.37340
H    -3.33270    -0.09960    -2.06940
H    0.17440    -0.23130    -4.55600
H    0.55930    0.08030    -0.29480
H    -1.58670    -1.96050    2.54040
H    1.94030    -0.43470    4.49420
H    -0.05760    1.87020    1.45370
H    -2.71100    6.01800    2.79090
Cl    -5.79010    -3.02360    1.13470
Cl    -3.05520    -2.88470    -0.58810
C    -2.54040    5.32990    4.84920
C    -1.19280    4.63150    4.58110
H    -0.69140    4.38580    5.51670
H    -3.14530    4.73470    5.53410
H    -2.33630    6.26600    5.36890
C    -7.04570    -5.55810    5.24410
C    -6.03610    -4.48090    5.68660
C    -5.93820    -4.46770    7.22510
C    -4.65090    -4.88320    5.13450
H    -7.14850    -5.57430    4.15820
H    -6.73240    -6.55380    5.55910
H    -8.03850    -5.38890    5.66080
H    -5.24560    -3.69770    7.56690
H    -6.90030    -4.27230    7.69820
H    -5.58260    -5.42380    7.61030
H    -3.87780    -4.17660    5.43640
H    -4.34670    -5.86300    5.50410
H    -4.65290    -4.94320    4.04520
C    -9.33520    0.46930    6.51960
C    -9.58790    -0.76710    5.63770
C    -10.41860    -1.77520    6.46180
C    -10.43800    -0.36160    4.41500
H    -8.78850    1.24310    5.98290
H    -10.26900    0.91220    6.86710
H    -8.74520    0.20960    7.39920
H    -10.62070    -2.68490    5.89480
H    -9.91490    -2.05610    7.38730
H    -11.38340    -1.35420    6.74630
H    -10.59430    -1.21090    3.74870
H    -11.42020    0.00370    4.71590
H    -9.97650    0.43160    3.82750
C    -9.11760    5.29950    2.04650
C    -8.20330    4.35960    2.86230
C    -7.10230    5.22200    3.50420
C    -9.05980    3.72420    3.97440
H    -9.94430    4.75710    1.58620
H    -9.55760    6.07130    2.67890
H    -8.56570    5.81270    1.25810
H    -6.47030    4.64070    4.17520
H    -6.45620    5.65970    2.74260
H    -7.52220    6.03950    4.09050
H    -8.45830    3.11920    4.65120
H    -9.55640    4.48220    4.58060
H    -9.83240    3.07800    3.55610
C    -6.85770    0.79720    -2.34260
C    -7.53260    2.00830    -1.66070
C    -6.99180    3.28280    -2.33790
C    -9.05030    1.89810    -1.90570
H    -7.21990    -0.14800    -1.93600
H    -7.06190    0.77990    -3.41370
H    -5.77400    0.82360    -2.22680
H    -7.47260    4.18500    -1.96040
H    -5.92020    3.39040    -2.16720
H    -7.15210    3.26140    -3.41620
H    -9.59380    2.76280    -1.52550
H    -9.27850    1.82030    -2.96910
H    -9.46230    1.01470    -1.41620
C    -1.85120    -0.45980    -6.02400
C    -2.61840    -0.28830    -4.69490
C    -3.46520    0.99510    -4.80270
C    -3.55110    -1.50680    -4.53680
H    -1.23480    -1.35980    -6.01810
H    -2.53570    -0.54840    -6.86820
H    -1.20450    0.39360    -6.23100
H    -4.08790    1.15140    -3.92280
H    -2.82970    1.87500    -4.90940
H    -4.13050    0.96340    -5.66600
H    -4.20460    -1.42250    -3.66900
H    -4.19590    -1.63200    -5.40720
H    -2.97600    -2.42640    -4.42010
C    2.63290    1.24100    -1.89080
C    2.08790    -0.05590    -2.52350
C    2.61500    -0.12680    -3.97330
C    2.65120    -1.27040    -1.75910
H    2.38080    1.32240    -0.83350
H    3.71960    1.29380    -1.96210
H    2.22740    2.12130    -2.39070
H    2.29930    -1.04390    -4.47210
H    2.27090    0.72010    -4.56820
H    3.70500    -0.11180    -3.99940
H    2.26500    -2.20440    -2.16900
H    3.73920    -1.31040    -1.81780
H    2.38950    -1.24860    -0.70100
C    0.32130    -3.87360    3.57770
C    0.19410    -2.64070    4.49440
C    -1.11700    -2.73410    5.30060
C    1.36620    -2.67820    5.49850
H    1.22930    -3.82120    2.97560
H    0.36340    -4.79780    4.15480
H    -0.51870    -3.96600    2.88940
H    -1.23820    -1.86660    5.95020
H    -1.99430    -2.77960    4.65620
H    -1.13640    -3.62280    5.93210
H    1.32130    -1.84490    6.20090
H    1.35160    -3.59380    6.09060
H    2.33140    -2.64340    4.99160
C    3.55550    1.32680    2.85540
C    2.17270    1.92350    3.18320
C    2.15920    2.42150    4.64180
C    1.96460    3.14900    2.26630
H    3.58550    0.94950    1.83230
H    4.34560    2.07170    2.95410
H    3.81300    0.49800    3.51460
H    1.17970    2.81970    4.90590
H    2.38850    1.62750    5.35180
H    2.89080    3.21400    4.80030
H    1.00920    3.63830    2.45860
H    2.74160    3.89780    2.42130
H    1.99470    2.87340    1.21150
H    -0.52990    5.32650    4.06550
H    -4.09170    6.40950    3.79570

C O Cl H P 0
6-31G(d)
****
Pd 0
LANL2DZ
****

Pd 0
LANL2DZ

