%NProcShared=40
%mem=18GB
%chk=S-35tBu-C3-Tunephos_4_SPE.chk
# PBE1PBE gen pseudo=read int=(grid=ultrafine) empiricaldispersion=GD3BJ nmr=giao 

 title 

0 1
Pd    -3.9679108586    -1.4597414648    1.0273805261
P    -5.0849428809    -0.1513790931    2.5299184829
P    -2.2581216576    0.042269961    0.8072868501
O    -1.4625594193    3.3613227966    3.912389141
O    -4.0891408044    4.3366240678    3.1800603816
C    -6.1992568967    -1.1164637455    3.6180218301
C    -5.8464983385    -2.4366533459    3.9255603279
C    -6.6276140141    -3.2010961858    4.8133134033
C    -7.7636367686    -2.594402644    5.3736090904
C    -8.1473943709    -1.2696378266    5.0725905147
C    -7.3473845024    -0.535962586    4.1848115088
C    -6.073009789    1.1938491648    1.7982920265
C    -6.5396437403    2.2847603589    2.5578971776
C    -7.3177624445    3.2807278136    1.9536936907
C    -7.5875311467    3.1649448211    0.5703893297
C    -7.1191227336    2.0966562172    -0.210269366
C    -6.361004641    1.0993011619    0.4327500448
C    -3.9317910009    0.648612239    3.7390889203
C    -3.7926999997    0.0797246182    5.0208501578
C    -2.8758708015    0.6081454555    5.936151727
C    -2.0928679725    1.7164619914    5.5971972006
C    -2.2375338372    2.2952070329    4.3295056632
C    -3.1390006317    1.764148217    3.3760297821
C    -3.209837388    2.433869499    2.0449135612
C    -3.6462098633    3.7774059163    2.0002243773
C    -3.7003316547    4.4899298814    0.7947200814
C    -3.305102712    3.8616434397    -0.3896585269
C    -2.864166306    2.5333568998    -0.371647943
C    -2.8087656848    1.8117604502    0.8370204348
C    -1.4726347325    -0.0848476483    -0.8418001924
C    -2.2797523749    -0.4779179687    -1.926351181
C    -1.7607992149    -0.5016065004    -3.2260410259
C    -0.4141127691    -0.1116287089    -3.409282994
C    0.4135175884    0.2748929627    -2.3443683592
C    -0.1397241287    0.2812346594    -1.0474159842
C    -0.9391272229    -0.0640074023    2.0602916414
C    -0.8966814203    -1.2178689398    2.8568228898
C    0.0874069762    -1.3585271748    3.848179423
C    1.0362389863    -0.3267151763    3.9801797502
C    1.0165186455    0.8418744743    3.193179109
C    -0.0020364445    0.9690394649    2.2356683205
C    -3.431004392    5.530300147    3.6547119333
H    -4.9744527605    -2.878971454    3.4345687433
H    -8.3872146684    -3.1739880887    6.0598591488
H    -7.6208909353    0.4839395584    3.9110727697
H    -6.2603851148    2.3603624912    3.6112815608
H    -8.1812674254    3.9483463587    0.0909837328
H    -5.9806570744    0.2325159246    -0.1189827764
H    -4.4076514913    -0.7782543722    5.3028809415
H    -2.7698827842    0.1499010622    6.9248584273
H    -1.360312627    2.1168255034    6.3038567551
H    -4.0721999026    5.5191492735    0.7930026426
H    -3.3488018871    4.4062456149    -1.3384002076
H    -2.5568202452    2.0538135693    -1.3036095355
H    -3.3043015034    -0.7995341793    -1.726335053
H    -0.0021528896    -0.1289663901    -4.4219502634
H    0.4809289349    0.5606174332    -0.192096166
H    -1.6502858937    -1.9907490778    2.6829965426
H    1.8192762265    -0.4313280143    4.7396008197
H    -0.0959509209    1.8821057479    1.6432750318
H    -2.731338538    5.9084829966    2.8864242913
Cl    -5.9454398709    -2.7505145056    0.6790007638
Cl    -2.5954115306    -3.1162774633    -0.0108924815
C    -2.7097380145    5.2219858139    4.9705230406
C    -1.3732911215    4.4970426671    4.7911522886
H    -0.9522282407    4.210202773    5.7741505327
H    -3.3904907716    4.6196970631    5.5987193647
H    -2.5166118537    6.1649342    5.516272846
C    -4.7697842594    -4.7286919612    5.5669258677
C    -6.2375434537    -4.6638134609    5.0819221348
C    -6.3785922199    -5.4556357086    3.7584671182
C    -7.130339346    -5.3208638439    6.1511347829
H    -4.6317369382    -4.1476419902    6.4961171536
H    -4.484254081    -5.7759878018    5.7704346146
H    -4.0697910679    -4.3373885514    4.810355735
H    -6.0578262201    -6.5026415201    3.9063286586
H    -5.7729392869    -5.0164493309    2.948116049
H    -7.4281888174    -5.4591709919    3.4178583569
H    -8.1870814064    -5.3595263695    5.8341857253
H    -6.7986769789    -6.3593773937    6.3212960684
H    -7.0758305508    -4.7872209435    7.1168686928
C    -10.6414617359    -1.5202096559    5.2586698915
C    -9.4212038241    -0.6789090158    5.7026492995
C    -9.6594912413    0.783853654    5.2781586092
C    -9.2972903688    -0.7209787261    7.2441575005
H    -10.5416930491    -2.5744196672    5.5672575277
H    -11.5675687143    -1.120729641    5.7097984942
H    -10.7525078507    -1.4995009054    4.1611402029
H    -8.825766887    1.4384254059    5.5890817925
H    -9.7846550207    0.8802284067    4.1854075233
H    -10.5789036241    1.1634378749    5.7560447392
H    -8.4385051767    -0.1173538488    7.5857108577
H    -10.2121923744    -0.3161666176    7.7127824671
H    -9.1560749477    -1.7499646977    7.6153091586
C    -9.4072945862    4.5013618414    2.6360132077
C    -7.8640813503    4.4851868325    2.7401584498
C    -7.2854045089    5.7876647114    2.1380888516
C    -7.4778084653    4.4320210197    4.2309512594
H    -9.837669701    3.5826877159    3.0716048693
H    -9.8186357209    5.368264724    3.1835984245
H    -9.7479123075    4.5705932934    1.5891651149
H    -6.1857283817    5.7885378247    2.225738838
H    -7.5437575709    5.8969846979    1.0712440741
H    -7.6818459298    6.6683514516    2.6747405439
H    -6.3825543157    4.4283239066    4.3614000264
H    -7.8839605515    5.3174231526    4.7499845845
H    -7.8923369083    3.5366473553    4.7269711867
C    -6.0156251638    1.9982465099    -2.4585048072
C    -7.376879894    1.9740815994    -1.7210962549
C    -8.245865276    3.1239709868    -2.2626551926
C    -8.0936859139    0.6329865541    -2.0088911926
H    -5.355873816    1.1819860819    -2.1190620062
H    -6.1679216008    1.8828428844    -3.5468572123
H    -5.4871075033    2.9502303314    -2.2780120711
H    -9.2372830042    3.1492743233    -1.7772699079
H    -7.7629342472    4.1066727535    -2.1181680582
H    -8.4075462903    2.9876763027    -3.3455849281
H    -9.0751959675    0.5974008973    -1.5054523347
H    -8.2585010017    0.5172461828    -3.0950166105
H    -7.5067865471    -0.2334971227    -1.6607749737
C    -4.0165349631    -1.4098255032    -4.0110757381
C    -2.6012794022    -0.9635368758    -4.4280092219
C    -1.8964564637    -2.1653605189    -5.1016751457
C    -2.7261278011    0.2014787679    -5.4377631765
H    -4.597492355    -0.5786341181    -3.5742988335
H    -4.5663804899    -1.7652533788    -4.8995554788
H    -3.988169806    -2.2338999381    -3.2774993897
H    -0.8863354948    -1.9032600442    -5.4600812251
H    -1.8001832812    -3.005146235    -4.3929433737
H    -2.4838452357    -2.5105322037    -5.9711834152
H    -1.7387291076    0.5470709078    -5.7896580301
H    -3.3070275566    -0.1191653545    -6.3210003885
H    -3.2443859757    1.0625313837    -4.9797880816
C    2.0482568754    2.1611890551    -2.0635838557
C    1.8829447679    0.6939076474    -2.5281758299
C    2.342522138    0.5926921324    -3.9945757381
C    2.7881080571    -0.2198412961    -1.6673995873
H    1.7615593    2.2863871714    -1.0048975159
H    3.1002690248    2.4816796238    -2.1695210515
H    1.4180096035    2.8386891589    -2.6653924138
H    2.2608831487    -0.4398703911    -4.3760200711
H    1.754029769    1.2537357189    -4.6545747324
H    3.4001976919    0.8972716007    -4.0741055134
H    2.6843658576    -1.2752089585    -1.97165299
H    3.8468740981    0.0732013414    -1.7851311869
H    2.5370768662    -0.1540920276    -0.5948392728
C    -1.0524469372    -3.5339016249    4.5361885843
C    0.1367969067    -2.5833548857    4.7762140077
C    0.0845434678    -2.1073400819    6.2475500017
C    1.4523832839    -3.3566877153    4.5256754327
H    -1.0612323184    -3.9380392926    3.5093634176
H    -0.9927283007    -4.3870514693    5.2337776649
H    -2.0155085038    -3.0229023523    4.7122848956
H    0.9410355858    -1.4605673857    6.5036364364
H    -0.8406772912    -1.5362320996    6.4372363378
H    0.1035956978    -2.9762013181    6.9291831689
H    2.3372831337    -2.7222901671    4.7066938751
H    1.5171772771    -4.2301873623    5.198845978
H    1.5007890091    -3.718749288    3.4846129404
C    3.4757148232    1.3401891761    3.0988428885
C    2.0803436528    1.9321790443    3.4075587677
C    2.0305168731    2.4097423671    4.8781444686
C    1.8538506454    3.153765823    2.4960946051
H    3.5331890524    1.0018044161    2.0493748752
H    4.2606104275    2.100918907    3.2598047641
H    3.7036806513    0.4751058401    3.7443225957
H    1.0341219574    2.8212442963    5.111784475
H    2.2325647734    1.5872079112    5.584579353
H    2.7850220444    3.1975315355    5.0528306689
H    0.8624020626    3.6056488105    2.6693233117
H    2.6233102704    3.9177064343    2.7020368647
H    1.9312410572    2.8862919393    1.4270868044
H    -0.6378976458    5.1524430847    4.2943899002
H    -4.2153586899    6.2909564751    3.8180937844

O H P C Cl 0
def2TZVP
****
Pd 0
SDD
****

Pd 0
SDD

--Link1--
%NProcShared=40
%mem=18GB
%chk=S-35tBu-C3-Tunephos_4_SPE.chk
# PBE1PBE gen pseudo=read int=(grid=ultrafine) empiricaldispersion=GD3BJ pop=nbo guess=read geom=check

 title 

0 1

O H P C Cl 0
def2TZVP
****
Pd 0
SDD
****

Pd 0
SDD

