%NProcShared=52
%mem=18GB
%chk=S-35tBu-C3-Tunephos_1_SPE_NoPd.chk
# PBE1PBE/def2TZVP int=(grid=ultrafine) empiricaldispersion=GD3BJ nmr=giao 

 title 

0 1
P    -5.1332617339    0.0641096082    2.4499480642
P    -2.3470756368    0.083768843    0.6396754046
O    -1.4613076052    3.6081590663    3.5252883562
O    -4.0994517784    4.5165210538    2.7964172457
C    -6.0895608031    -0.9886575252    3.6032507629
C    -5.6235555401    -2.3026801793    3.8029239523
C    -6.2460065642    -3.1468200265    4.7289290804
C    -7.3380032064    -2.630596449    5.4630600576
C    -7.8272617411    -1.3284535832    5.2789706189
C    -7.1832282499    -0.5080306152    4.3285871757
C    -6.2022213802    1.4018589996    1.8181303132
C    -6.7153073561    2.4167082277    2.6400263942
C    -7.5754389882    3.3973052643    2.1043680982
C    -7.8290965291    3.3613719228    0.7229029639
C    -7.2811083761    2.3814656735    -0.1332532623
C    -6.4876577727    1.3817319863    0.4413326979
C    -3.9462078524    0.9089189634    3.5926918814
C    -3.8148916415    0.4547101855    4.9196402767
C    -2.9045094617    1.0646041655    5.7899304178
C    -2.1158190863    2.1349250454    5.3569772347
C    -2.2457356829    2.5924079974    4.0387369992
C    -3.1491408577    1.985016496    3.1360126805
C    -3.2451050665    2.5542925322    1.7604001073
C    -3.7018798322    3.8875150022    1.6399831799
C    -3.8048441883    4.5169430334    0.3921843304
C    -3.4260624316    3.8184439332    -0.7588036905
C    -2.9575190511    2.5028182221    -0.6653599271
C    -2.8631386834    1.8610538763    0.5860909888
C    -1.4628418292    -0.133191001    -0.9504703353
C    -2.2138643031    -0.4732435909    -2.0871065722
C    -1.601526781    -0.5761895682    -3.3468895956
C    -0.2153243492    -0.3357149001    -3.4296156458
C    0.562309108    -0.0077976678    -2.303854586
C    -0.0843286673    0.0922421298    -1.058572615
C    -1.1006016385    -0.0626267923    1.9609094981
C    -1.1526119732    -1.2071051155    2.7634254424
C    -0.2037406885    -1.4107614602    3.7842564587
C    0.7959293216    -0.4392105823    3.9476618234
C    0.8709508584    0.7269002617    3.1512690022
C    -0.1021289803    0.9110645905    2.1606072193
C    -3.4464931906    5.7502080768    3.1567317169
H    -4.7960174645    -2.6632229168    3.1868631421
H    -7.8291262017    -3.2829660299    6.189943947
H    -7.5516523912    0.5043865584    4.142786497
H    -6.433440032    2.4511501515    3.6975161359
H    -8.4774770992    4.1253781623    0.2858468691
H    -6.0694092785    0.5677582699    -0.1562754243
H    -4.4292737148    -0.376078524    5.2730366763
H    -2.806566885    0.6976429139    6.8168056027
H    -1.3920952679    2.5999037689    6.0324546197
H    -4.196373691    5.5371771238    0.3337523372
H    -3.5002634427    4.2996717105    -1.7394371958
H    -2.6570299936    1.9703810613    -1.5710288114
H    -3.2794095323    -0.6918374292    -1.969671289
H    0.2739562221    -0.4197229655    -4.4013319864
H    0.4945138176    0.3298983268    -0.162683669
H    -1.9499071188    -1.935234677    2.5767894573
H    1.5477421691    -0.5820114148    4.7288972998
H    -0.1144141105    1.8193403282    1.5534868812
H    -2.7770880107    6.0788907206    2.3400069032
C    -2.6781318472    5.5507233087    4.4674726548
C    -1.3463337326    4.8131259201    4.3032807155
H    -0.8901807678    4.6085805983    5.291416575
H    -3.3354330516    5.0028008516    5.1663296735
H    -2.4690346572    6.5355315924    4.9264753299
C    -6.9960164007    -5.5426236218    4.6679205826
C    -5.7953199203    -4.6029080046    4.9328006915
C    -5.3040745909    -4.7817407575    6.3886183234
C    -4.657103597    -5.0005233266    3.9718936929
H    -7.3594945341    -5.4245679042    3.6331522729
H    -6.6916678763    -6.5947684497    4.810949868
H    -7.838168555    -5.3400613115    5.3513854884
H    -4.4346299843    -4.1315350615    6.5913771178
H    -6.0923888426    -4.5328140324    7.1200663213
H    -4.9985218388    -5.8289524688    6.5629973063
H    -3.7401896145    -4.4130676709    4.1527426784
H    -4.4014861248    -6.0631312998    4.1256711098
H    -4.9462983806    -4.8704531501    2.9148363414
C    -8.5434047572    0.4441543883    6.9067773383
C    -9.0227202779    -0.7646075077    6.0674242325
C    -9.6397494038    -1.8040698224    7.0219394984
C    -10.1181374105    -0.3021045196    5.0771378248
H    -8.1126301676    1.2352480297    6.2695264972
H    -9.3886528735    0.8835595491    7.4663127481
H    -7.770218316    0.1372889994    7.6324832377
H    -10.0120597389    -2.6879152668    6.4755750712
H    -8.9143988989    -2.1454489356    7.7810481878
H    -10.4946543729    -1.3548442816    7.5559093452
H    -10.4739528782    -1.1470918082    4.4635060452
H    -10.9798580358    0.1134449209    5.6297920667
H    -9.7496939344    0.4792235208    4.3914005261
C    -9.1902954689    5.3744249235    2.2915074251
C    -8.2121550016    4.4458102599    3.0362279101
C    -7.1071571949    5.3173753963    3.6763474651
C    -8.9969539616    3.7155519985    4.1527109072
H    -10.0146794407    4.80920843    1.8232123096
H    -9.6357842423    6.0897080445    3.0040161437
H    -8.6812427017    5.9600904546    1.5062306935
H    -6.3724315407    4.7070727622    4.2260028054
H    -6.556358699    5.8747988969    2.8997239402
H    -7.5550546793    6.0429088939    4.3792303385
H    -8.3366035189    3.0813425713    4.7682882158
H    -9.4782252351    4.4477473338    4.8255062292
H    -9.7837932889    3.0698492846    3.7257531574
C    -6.7740503387    1.3444026471    -2.407623981
C    -7.566803207    2.4235544099    -1.6431601383
C    -7.1602156746    3.8081125571    -2.2011402934
C    -9.0780223182    2.1922109763    -1.877683633
H    -7.0485805908    0.3242105103    -2.0885853418
H    -6.9831889344    1.4266425228    -3.4882816099
H    -5.6860346578    1.4696027963    -2.2637285587
H    -7.7294307328    4.6275874899    -1.7300008927
H    -6.0866784246    3.9962082555    -2.0275672668
H    -7.3500582208    3.8497521112    -3.2884248217
H    -9.6892485575    2.9558983729    -1.366181945
H    -9.309591359    2.2383520971    -2.9569165735
H    -9.3846526061    1.2018305912    -1.5004304034
C    -1.6549197477    -0.9601958128    -5.8744940976
C    -2.453918465    -0.9904257413    -4.5580866261
C    -3.6565120652    -0.0262843843    -4.6975572923
C    -2.9718460319    -2.4306525956    -4.3224725139
H    -0.8123843926    -1.6732636287    -5.8582911531
H    -2.3136026282    -1.2462294004    -6.7123174275
H    -1.2543983078    0.0465785709    -6.0896198933
H    -4.309207837    -0.051546073    -3.8090708492
H    -3.3159740647    1.0142884464    -4.8437118937
H    -4.2721320286    -0.3122442329    -5.5688163513
H    -3.5395683408    -2.5164914859    -3.3809137563
H    -3.6283205363    -2.7395004283    -5.1559393049
H    -2.129877232    -3.1413952428    -4.2625848295
C    2.3620684953    1.7088065579    -1.9470899511
C    2.078411108    0.2493963826    -2.3776804037
C    2.6400603573    0.0428882522    -3.7969106015
C    2.811460126    -0.7177035498    -1.4170177518
H    2.0052525945    1.9043268516    -0.9209413685
H    3.4474642954    1.9137367208    -1.9733387167
H    1.8585749376    2.423831939    -2.6205420759
H    2.4768643319    -0.9890549445    -4.1529716784
H    2.182702111    0.7366665314    -4.5237221126
H    3.7276972203    0.2298576414    -3.7962351968
H    2.6184772272    -1.7681932958    -1.6934808072
H    3.9015055465    -0.5421924856    -1.4590853897
H    2.48819    -0.5816640922    -0.3707188353
C    -0.341510429    -3.9269057267    3.7879293974
C    -0.3222323914    -2.6588786169    4.6747077327
C    -1.6461986945    -2.5674724817    5.4721453856
C    0.8427895723    -2.7779951769    5.6746082659
H    0.597288276    -4.0199123821    3.2152679938
H    -0.4517559562    -4.8270667689    4.4185118407
H    -1.1742865726    -3.9179197454    3.0650298568
H    -1.6480020165    -1.681719192    6.1306807719
H    -2.5188041628    -2.4850128727    4.80257266
H    -1.7797435928    -3.4688924776    6.0974124737
H    0.8741166371    -1.923284955    6.3732631357
H    0.72165269    -3.6947986868    6.2764521017
H    1.8170746892    -2.8416320642    5.1590151434
C    3.3622955327    1.052913879    3.1887757308
C    1.9957264471    1.747713086    3.3955821146
C    1.8938187632    2.2780979759    4.845260129
C    1.9101841316    2.9504406741    2.4362460807
H    3.4553135196    0.6737452745    2.1559186853
H    4.186310932    1.7661547479    3.369907346
H    3.4966755148    0.1994412817    3.8744917154
H    0.9270964564    2.787540372    4.9977187821
H    1.970591586    1.4650256959    5.5866224263
H    2.7047363872    3.0002769657    5.0485282622
H    0.9493284798    3.4818014816    2.542592615
H    2.7243674526    3.6611588241    2.6601076915
H    2.0216471557    2.6404867319    1.3819499235
H    -0.6303921278    5.4247910557    3.72861297
H    -4.2348179106    6.5123058688    3.2923231302

--Link1--
%NProcShared=52
%mem=18GB
%chk=S-35tBu-C3-Tunephos_1_SPE_NoPd.chk
# PBE1PBE/def2TZVP int=(grid=ultrafine) empiricaldispersion=GD3BJ pop=nbo guess=read geom=check

 title 

0 1

