%NProcShared=40
%mem=18GB
%chk=S-35tBu-C3-Tunephos_3_SPE.chk
# PBE1PBE gen pseudo=read int=(grid=ultrafine) empiricaldispersion=GD3BJ nmr=giao 

 title 

0 1
Pd    -3.8618184357    -1.3703655688    0.9897231629
P    -5.0468231581    -0.1405571622    2.5020052234
P    -2.2011250229    0.1979577948    0.7898423771
O    -1.6044366668    3.5276789848    3.885346275
O    -4.2629227545    4.378133405    3.1653106295
C    -6.1146078388    -1.1601407383    3.5887464324
C    -5.7279609971    -2.4796340308    3.8699032604
C    -6.4740993952    -3.2699242814    4.760803945
C    -7.6111511401    -2.6945777532    5.3624769165
C    -8.0230992654    -1.3763538301    5.0924220574
C    -7.2559578298    -0.6155268967    4.1925713493
C    -6.1071499884    1.1597255695    1.7899247271
C    -6.5991899118    2.2294508738    2.5575439301
C    -7.4369529011    3.1915614548    1.9711979732
C    -7.724118496    3.0630036537    0.5974048106
C    -7.2330104003    2.008064328    -0.1953495006
C    -6.4267089845    1.0433681331    0.4289653556
C    -3.941658528    0.7107708265    3.7166232263
C    -3.796365507    0.1614096635    5.0063865845
C    -2.9149996674    0.7381883071    5.9274251002
C    -2.1729942876    1.8736229947    5.5856911392
C    -2.3244488521    2.4307010273    4.3086894826
C    -3.1923778217    1.8541325816    3.3512998885
C    -3.2835210958    2.5271598888    2.022097655
C    -3.7866946608    3.8481241014    1.9845807909
C    -3.8661099487    4.5680995074    0.7851183462
C    -3.4155473197    3.9770320735    -0.3988048999
C    -2.8980398166    2.6765971201    -0.3857751692
C    -2.8286151671    1.9419493558    0.8147287196
C    -1.4336009416    0.0403529401    -0.8641047958
C    -2.3080130408    -0.1319853127    -1.9472734949
C    -1.8164602586    -0.2847164726    -3.2548055277
C    -0.4228293169    -0.2822633293    -3.4287241293
C    0.4807289193    -0.1309316257    -2.3561090253
C    -0.0436020101    0.0443368831    -1.0648589055
C    -0.8806940487    0.1319578409    2.0478933062
C    -0.8843209917    -0.9783421534    2.9107915266
C    0.0914118393    -1.1056973472    3.9069296684
C    1.0911691275    -0.112020782    3.9799990583
C    1.1276130035    1.0025657372    3.1248852551
C    0.1032788866    1.1261037617    2.1632160134
C    -3.6645386516    5.6008089775    3.6475371348
H    -4.8585146014    -2.8955292344    3.3526833416
H    -8.2007243726    -3.2991317775    6.0535608754
H    -7.5600405626    0.4049909467    3.9468170403
H    -6.2963277989    2.3219192285    3.6031085055
H    -8.353565444    3.8241713349    0.1227586514
H    -6.0313252808    0.1843563424    -0.1202447493
H    -4.3805071686    -0.7173173874    5.2902484968
H    -2.8069350555    0.2981488393    6.9241469609
H    -1.4709963801    2.3145048102    6.29910288
H    -4.2949209129    5.5749130393    0.7880466404
H    -3.4727778608    4.5295163477    -1.3422926084
H    -2.538608779    2.2306075334    -1.3156756027
H    -3.3849950809    -0.1873160059    -1.7545696398
H    -0.0165059013    -0.4241915494    -4.4335929681
H    0.619872632    0.1478546929    -0.2040826423
H    -1.6700534667    -1.7269633753    2.7783629339
H    1.8705799273    -0.2189662709    4.7388419979
H    0.0661274809    1.9999068936    1.5040548443
H    -2.9909699577    6.0214210948    2.8780173997
Cl    -5.7840227479    -2.7350340041    0.6115821585
Cl    -2.4238503153    -2.9489201463    -0.0755041396
C    -2.91869069    5.3252813704    4.9572535791
C    -1.5513780578    4.6631451947    4.7642398151
H    -1.1063489407    4.3947668069    5.7418509117
H    -3.5647447831    4.6911838113    5.590822885
H    -2.7668342089    6.2765447175    5.501560331
C    -6.9039638718    -5.4180747419    6.0805123966
C    -6.0549645939    -4.7311257698    4.9942939284
C    -4.5717491069    -4.7847688151    5.4308750187
C    -6.2268416871    -5.5038141557    3.6630394154
H    -7.9695663262    -5.4695855823    5.7968580149
H    -6.5506483378    -6.453512761    6.2243221404
H    -6.8274546736    -4.8980232942    7.0521229015
H    -3.9012385311    -4.37527757    4.6577094968
H    -4.4100960388    -4.2138165559    6.3625138436
H    -4.268299835    -5.8312821091    5.6113694049
H    -5.6500117009    -5.0436956828    2.843214427
H    -5.8897900972    -6.5492066027    3.7838826655
H    -7.2861468652    -5.5146892798    3.3538606157
C    -10.2347693767    -0.262729134    4.6271661172
C    -9.2654789038    -0.7355438697    5.737354435
C    -8.8209636072    0.484181425    6.5803711401
C    -10.0196905524    -1.7141201634    6.6570059685
H    -10.5609492231    -1.1115250931    4.0023842485
H    -11.1306989147    0.2021192065    5.0766149931
H    -9.7659291579    0.4825178562    3.9618459473
H    -8.1334618047    0.1763389119    7.387216859
H    -8.2992810249    1.2354851498    5.9623279934
H    -9.6979254778    0.9737547477    7.0408401589
H    -9.3882378875    -2.0585708725    7.4945028032
H    -10.9023294088    -1.2118954164    7.0890260593
H    -10.3751693358    -2.6007111421    6.1039027205
C    -9.5701840346    4.315214024    2.6820071012
C    -8.0269047459    4.3642965075    2.774157812
C    -7.5094475114    5.6956467023    2.1799218896
C    -7.6280434966    4.3120122505    4.2617600685
H    -9.957559873    3.3728056611    3.107453359
H    -10.0140774761    5.155903195    3.2447823801
H    -9.9224078395    4.3834573271    1.6390119906
H    -6.409897362    5.7407139898    2.2550428594
H    -7.7841537524    5.8035841481    1.1169569459
H    -7.9358762088    6.5542576622    2.7292166005
H    -6.5331308667    4.3566433689    4.3864195881
H    -8.0706408236    5.1718310443    4.793770353
H    -7.998069024    3.3931146119    4.7508574833
C    -9.075185414    1.9927919342    -1.9213085973
C    -7.5456173815    1.9505189731    -1.6996429467
C    -6.9957933372    0.6678503883    -2.3533024444
C    -6.885178127    3.1737021053    -2.3807354008
H    -9.5282813554    2.9092408583    -1.5064086212
H    -9.302520274    1.9662427713    -3.001784683
H    -9.5639567846    1.1257355994    -1.4452249483
H    -5.8963511346    0.6101600212    -2.2775278334
H    -7.4127153309    -0.2438047916    -1.892050499
H    -7.2534630131    0.6571807085    -3.4262963467
H    -5.7926039692    3.1634160614    -2.2217349303
H    -7.0795463769    3.1597627331    -3.4681851213
H    -7.2758941988    4.1234836609    -1.9759717339
C    -3.6023016673    0.8621349243    -4.5844029766
C    -2.8086483788    -0.4563960256    -4.4171083592
C    -3.7833269058    -1.6158024761    -4.0981156612
C    -2.099739744    -0.7705356558    -5.7481026447
H    -2.9287975304    1.6968811159    -4.8478337566
H    -4.3554255814    0.7594861855    -5.3863432631
H    -4.1339875072    1.1349180607    -3.6569875538
H    -3.2345147447    -2.5585833659    -3.9369781921
H    -4.3793395041    -1.4280450691    -3.1899861148
H    -4.4870434509    -1.7574106551    -4.9377694056
H    -1.5090321771    -1.7007105859    -5.6826955158
H    -2.8518768666    -0.9053986166    -6.5440973166
H    -1.4277693003    0.0479433228    -6.0615118226
C    2.3391231362    -1.5683671396    -3.2442478251
C    1.9937597947    -0.1898251813    -2.6317032419
C    2.8285814692    -0.006336136    -1.350929798
C    2.3794993935    0.9303993288    -3.6266273093
H    1.799272731    -1.7419960862    -4.1902279048
H    3.4218227982    -1.6320537675    -3.4553042332
H    2.0710940918    -2.3823853961    -2.5495050861
H    2.6455796188    0.9762838003    -0.8837954318
H    2.6111508634    -0.7896672961    -0.604225095
H    3.9028969717    -0.0653068949    -1.5969411767
H    2.1524494677    1.9253383742    -3.2056449135
H    3.4608824315    0.8884700957    -3.8489059005
H    1.8356415932    0.8351881363    -4.581529524
C    1.3597771486    -3.1483172941    4.6263630871
C    0.1018638336    -2.2875977076    4.890000316
C    -1.149291586    -3.174112403    4.7336962682
C    0.1351807893    -1.7516016987    6.3407564414
H    2.2857407418    -2.5599875614    4.7482330179
H    1.39927359    -3.9958170398    5.3339685137
H    1.3469868543    -3.5548921317    3.6007749939
H    -2.0744861133    -2.5951380849    4.9019325931
H    -1.2080077157    -3.6349065322    3.7325099824
H    -1.122577017    -3.9898004573    5.4767316221
H    -0.746368662    -1.1188995674    6.5409002046
H    0.1295954665    -2.5932813213    7.0558356226
H    1.0380947521    -1.1496101525    6.539966797
C    1.6297115344    3.4342877399    3.5758930502
C    2.2413975466    2.0646302455    3.2021059869
C    2.9326711354    2.1748795541    1.8226850685
C    3.3157248287    1.7135177282    4.2492102411
H    1.1730083045    3.3938838608    4.5795179861
H    2.4150508149    4.2116870251    3.5813666002
H    0.8427513563    3.7369858256    2.8664611549
H    3.3772257847    1.2095718622    1.5261122909
H    2.2229035128    2.4767401345    1.0339998222
H    3.7377562404    2.9305381829    1.8573013374
H    3.8036233597    0.7485468921    4.0273248508
H    4.0976902445    2.4921714243    4.2509087435
H    2.8942403877    1.6630958588    5.2683643055
H    -0.8519488034    5.3510716314    4.2601308242
H    -4.4874616093    6.3171570331    3.8208764908

O H P C Cl 0
def2TZVP
****
Pd 0
SDD
****

Pd 0
SDD

--Link1--
%NProcShared=40
%mem=18GB
%chk=S-35tBu-C3-Tunephos_3_SPE.chk
# PBE1PBE gen pseudo=read int=(grid=ultrafine) empiricaldispersion=GD3BJ pop=nbo guess=read geom=check

 title 

0 1

O H P C Cl 0
def2TZVP
****
Pd 0
SDD
****

Pd 0
SDD

