%NProcShared=32
%mem=18GB
%chk=S-35tBu-C3-Tunephos_5_SPE_NoPd.chk
# PBE1PBE/def2TZVP int=(grid=ultrafine) empiricaldispersion=GD3BJ nmr=giao 

 title 

0 1
P    -5.0487083432    -0.0468056081    2.5078655648
P    -2.2001642706    0.1633301021    0.8120128835
O    -1.6429273176    3.6969532334    3.756994879
O    -4.2800734937    4.4795006077    2.9397366937
C    -6.0977491592    -1.0449668714    3.6324336715
C    -7.2142665804    -0.4822612042    4.2653355502
C    -7.9682980701    -1.2299939726    5.1868180996
C    -7.5692419835    -2.5540011617    5.448356179
C    -6.4573836248    -3.1475389988    4.8178759808
C    -5.7226405617    -2.3690682914    3.9073281551
C    -6.1137352521    1.2430047463    1.7840655003
C    -6.6068104028    2.3187162122    2.5489099588
C    -7.4634041626    3.2615643313    1.9667712137
C    -7.7814919049    3.1129746331    0.5973390657
C    -7.2831511946    2.0636691167    -0.1903071452
C    -6.4462723108    1.1167481659    0.4315962014
C    -3.9284826943    0.8331765929    3.6879457356
C    -3.7721086274    0.3280468441    4.9937078499
C    -2.8976733567    0.9494878638    5.8923280445
C    -2.1836369187    2.0919307911    5.5157889468
C    -2.3445652393    2.6030313613    4.2207275987
C    -3.1943112221    1.972500694    3.282989923
C    -3.2758107625    2.5709539054    1.9202328887
C    -3.7893971982    3.8825248687    1.7979014969
C    -3.8672557333    4.5234895119    0.5543450676
C    -3.40821103    3.8598900312    -0.5875085528
C    -2.8822830416    2.5664223229    -0.4906473768
C    -2.8093602372    1.9124029822    0.755815262
C    -1.4032926304    -0.0326956826    -0.8266574859
C    -2.2050094817    -0.5043779347    -1.8748148017
C    -1.6935865034    -0.6178746479    -3.1805928229
C    -0.3582221362    -0.2390265536    -3.3901680682
C    0.4762490424    0.2289681493    -2.3521136794
C    -0.0650419452    0.330478965    -1.0605104257
C    -0.9039424112    0.0641864525    2.095996329
C    -0.8935522368    -1.1174595432    2.8515149606
C    0.0852428088    -1.3339301885    3.8343289256
C    1.0665852813    -0.3424712783    4.0110955684
C    1.0877887727    0.8534784923    3.2644783661
C    0.0686462631    1.0580911097    2.3136549006
C    -3.6927902568    5.7305915842    3.3580283857
H    -7.5103799656    0.5416999733    4.0248916294
H    -8.1497734385    -3.1485966766    6.1555480231
H    -4.8737222046    -2.7994007438    3.3679771152
H    -6.2865823631    2.4259885388    3.587647358
H    -8.4384491945    3.8544868635    0.134134499
H    -6.0431278126    0.2638318717    -0.1249230435
H    -4.3384975225    -0.5521877398    5.3067874295
H    -2.7729481477    0.5383461976    6.899327819
H    -1.4925794344    2.5713174815    6.2150621074
H    -4.3048716701    5.5246326643    0.4911276968
H    -3.468633079    4.3486419748    -1.5652371007
H    -2.5277298011    2.0588765066    -1.390480056
H    -3.2289639875    -0.8213991747    -1.6544415704
H    0.062490531    -0.3236305149    -4.3957905409
H    0.5508209653    0.6713157292    -0.2255638766
H    -1.6619489583    -1.8702040423    2.6451264226
H    1.8444078079    -0.5064502494    4.7582203992
H    0.0179709861    1.9946839581    1.7482077602
H    -2.9945145094    6.0985816709    2.5836291319
C    -2.9889349605    5.5358532676    4.704909274
C    -1.6158315477    4.8680893882    4.5894949758
H    -1.2032049386    4.6405044778    5.5908362599
H    -3.6537400331    4.9364136222    5.3527167251
H    -2.8558894382    6.5170747116    5.1985134877
C    -9.9282645257    -1.5349322679    6.8035232853
C    -9.1849610775    -0.5700830515    5.8608139124
C    -10.1758675413    -0.0890431079    4.7733658434
C    -8.7032730945    0.6470282434    6.6870240254
H    -9.2798892682    -1.8853241268    7.6254698829
H    -10.7922675861    -1.0190341355    7.2565542502
H    -10.310433742    -2.4183059364    6.2632346608
H    -9.7139533509    0.6463144034    4.0923122032
H    -10.5296412555    -0.9361146752    4.1613938162
H    -11.0534324634    0.3903304213    5.2433161437
H    -8.1885366089    1.3896603004    6.0529105966
H    -9.5617873691    1.1492976378    7.1680791878
H    -7.9990305457    0.333536454    7.4770833911
C    -6.8716306547    -5.2815553906    6.1644759194
C    -6.0607515375    -4.6175219224    5.0356155125
C    -4.559567031    -4.7095435906    5.3968741479
C    -6.317392175    -5.3865530913    3.7157052719
H    -7.950202475    -5.3127576877    5.9315751695
H    -6.5334352342    -6.3234604716    6.2973863193
H    -6.7389793601    -4.758222455    7.1282457003
H    -3.9174637516    -4.3324566543    4.584149981
H    -4.3318396618    -4.1311184517    6.3098255643
H    -4.2784970809    -5.762397296    5.5764334682
H    -5.7694154373    -4.9407058635    2.8685155371
H    -6.000827286    -6.4399586529    3.8216324744
H    -7.3905901761    -5.3712257729    3.4589351538
C    -7.5662089953    5.7668230957    2.1182975706
C    -8.0434749171    4.4434916212    2.7624500703
C    -7.5911006194    4.4326012369    4.2354778778
C    -9.5881065828    4.370738596    2.7261809931
H    -7.8932146274    5.8520718346    1.0682011475
H    -7.9725967197    6.6330433435    2.6708116434
H    -6.4645542413    5.8202431372    2.1379889489
H    -7.9342772448    3.5233613896    4.7608631914
H    -6.4927355449    4.4892626175    4.3188031701
H    -8.0220945344    5.3017823047    4.7617482442
H    -9.946440138    3.4352985965    3.1907590282
H    -10.0247577404    5.2206414734    3.2807715321
H    -9.9767430306    4.4049320154    1.6944891187
C    -8.2190055228    0.5240518676    -1.9469400122
C    -7.5884662929    1.9136896994    -1.6892028545
C    -6.2584739932    2.031222449    -2.4721149823
C    -8.5559172785    2.9958787593    -2.2026784267
H    -9.1792038764    0.4245643711    -1.4119238432
H    -8.4099927537    0.3897984661    -3.026613788
H    -7.5639885536    -0.2981460266    -1.6131958508
H    -5.7947323614    3.0200998074    -2.3116718574
H    -5.5310486852    1.2671392228    -2.1518530075
H    -6.4364365445    1.8980351076    -3.5543319079
H    -9.5270192994    2.9568579731    -1.6786086714
H    -8.7495830379    2.8390109046    -3.2775496659
H    -8.1372629155    4.0110044653    -2.0840950982
C    -3.9284960228    -0.4420939876    -4.3406445436
C    -2.5844795558    -1.2056145149    -4.2870921029
C    -2.8537722515    -2.6930593893    -3.9490368705
C    -1.923106864    -1.1210149762    -5.6755441535
H    -3.7706122773    0.6341604016    -4.5322154652
H    -4.5608182102    -0.8474735847    -5.1502605937
H    -4.4954327814    -0.5430214986    -3.4006671332
H    -1.912080767    -3.2683597495    -3.9484894557
H    -3.3114773367    -2.8116337461    -2.9524629953
H    -3.5315760792    -3.1365346596    -4.7007136859
H    -0.9910820456    -1.7107118152    -5.7221708087
H    -2.6094410717    -1.5298718315    -6.4366279892
H    -1.6896845644    -0.0783984918    -5.9564665696
C    2.6977050693    1.0840928506    -1.4211074239
C    1.9379068044    0.5939959617    -2.666980918
C    1.9659623837    1.7204260498    -3.7272913869
C    2.6654751983    -0.6548738948    -3.2196111082
H    2.7277520871    0.3135892465    -0.6314523288
H    3.7392046894    1.3288313602    -1.6919070164
H    2.2401399955    1.9941469751    -0.9959765108
H    1.4609785151    1.4172613184    -4.6598225431
H    1.4627907882    2.6275203244    -3.349651837
H    3.0092031744    1.9835045898    -3.9783571627
H    2.1877183317    -1.0329056704    -4.1389472127
H    3.7157790073    -0.4102262347    -3.4599319488
H    2.6601903664    -1.4709812987    -2.4771058737
C    1.1914501835    -2.7284892984    5.6701232159
C    0.0297374629    -2.6260832819    4.6647180162
C    0.0867474507    -3.8472280458    3.7153331345
C    -1.3038118385    -2.6451499328    5.4504583777
H    1.1778363002    -1.8999797827    6.4003939941
H    1.1089121618    -3.6725689026    6.2353479584
H    2.1720381368    -2.7279941313    5.162561524
H    -0.7289642917    -3.8365861702    2.9728752635
H    1.0413072079    -3.8670481566    3.161571311
H    0.0063654369    -4.7826325113    4.2974619568
H    -2.1727721172    -2.5948984086    4.7736002246
H    -1.3882055789    -3.5745342198    6.0417212687
H    -1.3666063317    -1.7846684664    6.1394586144
C    1.5575711226    3.2007301393    4.0543886926
C    2.1862543506    1.9167401353    3.4669533334
C    2.8393804667    2.2507594299    2.1058339812
C    3.2967315696    1.438790747    4.422933578
H    1.101097418    2.9955247527    5.0389660019
H    2.3314042818    3.978680239    4.1864567824
H    0.7665957003    3.5966798982    3.39865007
H    3.2928644904    1.3526337155    1.6531044261
H    2.1069382454    2.656875582    1.3885808249
H    3.6323437861    3.0082966016    2.2386879662
H    3.7789161773    0.5142956914    4.0607391957
H    4.0754453935    2.2170263404    4.4996535514
H    2.9128232609    1.2536256156    5.4411860046
H    -0.9001128659    5.5352323568    4.0801623759
H    -4.5170752555    6.4591040235    3.4601587778

--Link1--
%NProcShared=32
%mem=18GB
%chk=S-35tBu-C3-Tunephos_5_SPE_NoPd.chk
# PBE1PBE/def2TZVP int=(grid=ultrafine) empiricaldispersion=GD3BJ pop=nbo guess=read geom=check

 title 

0 1

