%nprocs=16
%mem=18GB
%chk=R-C4-Tunephos_1.chk
# PBEPBE gen 6D pseudo=read scf=maxcycles=500 denfit int=(grid=ultrafine) empiricaldispersion=GD3BJ opt freq=noraman

title 

0 1
Pd    -2.40420    0.01410    -0.00070
P    -0.71580    1.72890    0.04110
C    -0.10500    2.22690    -1.65380
C    -0.92950    2.01840    -2.77900
C    -0.48870    2.38030    -4.06700
C    0.78350    2.95770    -4.23940
C    1.61040    3.17620    -3.12160
C    1.16430    2.81530    -1.83590
H    1.80870    2.97590    -0.98290
H    1.12440    3.23330    -5.22680
H    -1.91050    1.58340    -2.65700
C    -1.30110    3.35740    0.78770
C    -0.91420    4.61010    0.26050
C    -1.36290    5.80990    0.84610
C    -2.20760    5.77340    1.97040
C    -2.60190    4.53420    2.50620
C    -2.14990    3.33770    1.91720
H    -2.46170    2.39340    2.33850
H    -2.55460    6.69350    2.41810
H    -0.26970    4.66860    -0.60260
C    0.78560    1.26190    1.08810
C    0.93220    1.86140    2.35980
C    1.99000    1.51740    3.21440
C    2.92240    0.55060    2.81630
C    2.80950    -0.06270    1.54920
C    1.74840    0.29860    0.67400
C    1.74540    -0.31940    -0.67150
C    2.81120    0.02970    -1.54600
C    2.91800    -0.58490    -2.81300
C    1.97450    -1.54060    -3.21200
C    0.91200    -1.87220    -2.35830
C    0.77160    -1.27120    -1.08670
P    -0.73610    -1.72060    -0.04110
C    -0.13280    -2.22570    1.65440
C    1.12940    -2.82890    1.83770
C    1.57000    -3.19500    3.12380
C    0.74460    -2.96700    4.24080
C    -0.52060    -2.37500    4.06720
C    -0.95590    -2.00780    2.77880
H    -1.93170    -1.56150    2.65590
H    1.08120    -3.24670    5.22850
H    1.77280    -2.99690    0.98530
C    -1.33980    -3.34200    -0.78820
C    -2.18760    -3.31240    -1.91830
C    -2.65300    -4.50350    -2.50780
C    -2.27340    -5.74730    -1.97190
C    -1.43000    -5.79370    -0.84700
C    -0.96780    -4.59920    -0.26090
H    -0.32460    -4.66530    0.60260
H    -2.63080    -6.66320    -2.41990
H    -2.48800    -2.36450    -2.33970
H    0.20070    -2.60070    -2.71110
H    2.05470    -2.00770    -4.18270
H    3.69930    -0.32430    -3.50740
O    3.68440    1.01460    -1.12510
C    5.04850    0.96500    -1.52410
H    5.48960    1.93190    -1.28070
H    5.17160    0.86290    -2.60050
C    5.80490    -0.13690    -0.76270
H    6.83570    -0.15270    -1.11710
H    5.39170    -1.11310    -1.02010
C    5.80550    0.06810    0.76840
H    6.83620    0.07160    1.12360
H    5.40380    1.04910    1.02540
C    5.03550    -1.02470    1.52920
H    5.46520    -1.99680    1.28620
O    3.67120    -1.05810    1.12910
H    5.15890    -0.92400    2.60580
H    3.70010    0.28090    3.51130
H    2.07490    1.98370    4.18500
H    0.22930    2.59850    2.71190
Cl    -4.07390    1.63880    -0.09210
Cl    -4.09300    -1.59090    0.08930
H    -1.05940    6.75910    0.42880
H    -3.25420    4.50060    3.36690
H    -1.12730    2.21640    -4.92280
H    2.58970    3.61420    -3.24700
H    -3.30420    -4.46230    -3.36890
H    -1.13780    -6.74640    -0.42950
H    2.54410    -3.64450    3.25010
H    -1.15820    -2.20370    4.92230

H C P Cl O 0
6-31G(d)
****
Pd 0
LANL2DZ
****

Pd 0
LANL2DZ

