%NProcShared=52
%mem=18GB
%chk=R-C4-Tunephos_2_SPE_NoPd.chk
# PBE1PBE/def2TZVP int=(grid=ultrafine) empiricaldispersion=GD3BJ nmr=giao 

 title 

0 1
P    -0.7528870539    1.6838009064    -0.0120400664
C    -0.0522731607    2.1599877643    -1.6323860978
C    -0.8548821797    1.9678037057    -2.7735069529
C    -0.3705586083    2.3466204611    -4.032078732
C    0.9071361833    2.9123409327    -4.1566621801
C    1.7046810123    3.1052572537    -3.019031892
C    1.2283150918    2.7326934023    -1.7558688637
H    1.8652421628    2.8519844618    -0.8737696544
H    1.2837452367    3.201202874    -5.14355173
H    -1.8558488657    1.5366739697    -2.6562834953
C    -1.3975203415    3.2390735152    0.7240523047
C    -0.8537667062    4.4874380445    0.373196979
C    -1.3052717576    5.6506575514    1.0120785517
C    -2.2910193594    5.5720509954    2.0051032839
C    -2.8355401175    4.3270880616    2.35468812
C    -2.3992449748    3.162853994    1.7119038838
H    -2.8476138167    2.1941667158    1.9530618028
H    -2.6437071754    6.4827914493    2.5000807047
H    -0.0894310248    4.5548311703    -0.4067911047
C    0.6828832506    1.2863073974    1.0911648976
C    0.7169415528    1.8770406203    2.3701082604
C    1.7516758296    1.581387868    3.2629782816
C    2.7781691214    0.7116968285    2.8879821586
C    2.7521101799    0.1177573583    1.6176503353
C    1.6988387385    0.3729404664    0.7076536252
C    1.7232106941    -0.2998638645    -0.6227461736
C    2.7960100469    -0.019319171    -1.5071330315
C    2.8351384698    -0.5822608421    -2.7927606394
C    1.8188162063    -1.4494980629    -3.1997088994
C    0.7775617308    -1.7796956477    -2.3281092318
C    0.7224877906    -1.2142440047    -1.0388794469
P    -0.7302529977    -1.6405683147    0.0307994156
C    -0.0607795212    -2.1171814823    1.6638644871
C    1.2322487798    -2.6538581555    1.815958721
C    1.6859550343    -3.0255850827    3.087595786
C    0.8527568832    -2.8692100663    4.2049965643
C    -0.4377745422    -2.3407625179    4.0516565456
C    -0.8992510332    -1.9615344314    2.7846560461
H    -1.9090417918    -1.5584563044    2.6453430809
H    1.2117013546    -3.1566893    5.1988378184
H    1.8962748522    -2.7447095103    0.9505831515
C    -1.3308369494    -3.2028022535    -0.7282000399
C    -2.3188086384    -3.1424266155    -1.7307484604
C    -2.7193453742    -4.3121213841    -2.3869900858
C    -2.1524182165    -5.5468461699    -2.0369062887
C    -1.1799278941    -5.6098816558    -1.0297239754
C    -0.7644707982    -4.4410799638    -0.3769116916
H    -0.0105276498    -4.4961680094    0.4141431971
H    -2.4773226844    -6.4620133921    -2.5426306886
H    -2.7850720628    -2.1825188039    -1.9728053006
H    0.0078821311    -2.4845889172    -2.648512462
H    1.8447224969    -1.8823712119    -4.2047408125
H    3.6501456071    -0.3361488268    -3.4778911186
O    3.7519277478    0.8612456417    -1.053430552
C    5.1106677144    0.6214480034    -1.4797722023
H    5.6832113515    1.4424743305    -1.0156269794
H    5.1948706806    0.7460194846    -2.576030379
C    5.6367571592    -0.7550459301    -1.0523380938
H    6.5166121235    -0.995619394    -1.676759078
H    4.8680094229    -1.5047332999    -1.3069147661
C    6.0327505961    -0.9045807874    0.4309676428
H    6.1447514306    -1.979680561    0.6593024855
H    7.0239065948    -0.4444868116    0.607568119
C    5.0787625992    -0.2678694541    1.4372255805
H    5.4085085341    -0.5089890701    2.4672795396
O    3.7400683203    -0.7527278357    1.2127923606
H    5.0764478875    0.8328222233    1.331448846
H    3.5901237877    0.473977376    3.5808098998
H    1.7590866009    2.0390557933    4.2572377648
H    -0.0657273944    2.5784385785    2.666172915
H    -0.887292913    6.621564427    0.7263620274
H    -3.6188354807    4.2616488402    3.1164484914
H    -0.994598568    2.1963867225    -4.9189117832
H    2.7067600809    3.5368331845    -3.113168343
H    -3.4924982118    -4.2592601912    -3.1600146582
H    -0.7444861627    -6.5730263812    -0.7437971787
H    2.6987677849    -3.4250534035    3.204039865
H    -1.0895388646    -2.2191382827    4.9227940744

--Link1--
%NProcShared=52
%mem=18GB
%chk=R-C4-Tunephos_2_SPE_NoPd.chk
# PBE1PBE/def2TZVP int=(grid=ultrafine) empiricaldispersion=GD3BJ pop=nbo guess=read geom=check

 title 

0 1

