%nprocs=16
%mem=18GB
%chk=R-C4-Tunephos_3.chk
# PBEPBE gen 6D pseudo=read scf=maxcycles=500 denfit int=(grid=ultrafine) empiricaldispersion=GD3BJ opt freq=noraman

title 

0 1
Pd    -2.46560    0.01440    -0.00090
P    -0.75960    1.70910    0.04340
C    -0.13130    2.20080    -1.64820
C    -0.96900    2.04290    -2.77180
C    -0.51840    2.40060    -4.05760
C    0.77720    2.92320    -4.22950
C    1.61800    3.09150    -3.11350
C    1.16240    2.73490    -1.82990
H    1.81850    2.85650    -0.97920
H    1.12540    3.19570    -5.21530
H    -1.96800    1.65060    -2.65000
C    -1.31050    3.35310    0.78520
C    -0.83040    4.59110    0.30140
C    -1.25050    5.80520    0.87860
C    -2.15910    5.79860    1.95240
C    -2.64490    4.57470    2.44650
C    -2.22090    3.36400    1.86590
H    -2.60260    2.43240    2.25700
H    -2.48400    6.72970    2.39380
H    -0.13360    4.62690    -0.52120
C    0.71900    1.20240    1.10680
C    0.77150    1.72020    2.42090
C    1.79850    1.37130    3.30700
C    2.81480    0.51040    2.87980
C    2.81190    -0.00190    1.56300
C    1.73880    0.29990    0.67680
C    1.73580    -0.32060    -0.67460
C    2.81300    -0.03130    -1.55990
C    2.81090    -0.54370    -2.87680
C    1.78490    -1.39250    -3.30480
C    0.75310    -1.72940    -2.41960
C    0.70580    -1.21110    -1.10540
P    -0.77970    -1.70030    -0.04350
C    -0.15880    -2.19910    1.64880
C    1.12830    -2.74830    1.83190
C    1.57840    -3.11020    3.11590
C    0.73850    -2.93210    4.23110
C    -0.55070    -2.39440    4.05780
C    -0.99580    -2.03150    2.77160
H    -1.99000    -1.62760    2.64870
H    1.08240    -3.20860    5.21720
H    1.78380    -2.87760    0.98190
C    -1.34920    -3.33780    -0.78560
C    -2.25870    -3.33810    -1.86710
C    -2.69630    -4.54390    -2.44800
C    -2.22520    -5.77330    -1.95340
C    -1.31760    -5.79050    -0.87890
C    -0.88390    -4.58120    -0.30140
H    -0.18830    -4.62510    0.52180
H    -2.56060    -6.70050    -2.39510
H    -2.62910    -2.40220    -2.25860
H    -0.01550    -2.39010    -2.78480
H    1.78920    -1.78630    -4.31070
H    3.59020    -0.28440    -3.57660
O    3.83400    0.78290    -1.11490
C    5.14390    0.52090    -1.60780
H    5.37820    1.27770    -2.35700
H    5.24320    -0.45130    -2.09220
C    6.16580    0.57960    -0.46330
H    6.04300    1.50100    0.10680
H    7.15480    0.64250    -0.91800
C    6.15820    -0.65240    0.46900
H    6.02490    -1.57230    -0.10110
H    7.14600    -0.72710    0.92450
C    5.13610    -0.58160    1.61270
H    5.36080    -1.34120    2.36210
O    3.82360    -0.82820    1.11880
H    5.24650    0.38930    2.09720
H    3.59040    0.24200    3.58030
H    1.80660    1.76510    4.31280
H    0.01040    2.39000    2.78550
Cl    -4.12980    1.64300    -0.10360
Cl    -4.14910    -1.59440    0.10010
H    -0.87520    6.74250    0.49400
H    -3.34550    4.56400    3.26900
H    -1.16770    2.27560    -4.91200
H    2.61520    3.48740    -3.23870
H    -3.39600    -4.52500    -3.27110
H    -0.95360    -6.73200    -0.49390
H    2.57080    -3.51770    3.24210
H    -1.19940    -2.26190    4.91150

H C P Cl O 0
6-31G(d)
****
Pd 0
LANL2DZ
****

Pd 0
LANL2DZ

