%nprocs=16
%mem=18GB
%chk=R-C4-Tunephos_2.chk
# PBEPBE gen 6D pseudo=read scf=maxcycles=500 denfit int=(grid=ultrafine) empiricaldispersion=GD3BJ opt freq=noraman

title 

0 1
Pd    -2.44720    0.01010    -0.00570
P    -0.76610    1.72930    0.05560
C    -0.12890    2.22840    -1.63020
C    -0.94940    2.04820    -2.76330
C    -0.49090    2.41080    -4.04490
C    0.79510    2.96080    -4.20320
C    1.61840    3.15130    -3.07770
C    1.15500    2.78970    -1.79830
H    1.79760    2.92860    -0.94010
H    1.14920    3.23710    -5.18570
H    -1.94100    1.63480    -2.65200
C    -1.35180    3.36390    0.79090
C    -0.90390    4.61080    0.29890
C    -1.35080    5.81710    0.87230
C    -2.25460    5.79360    1.95000
C    -2.70890    4.56080    2.45170
C    -2.25830    3.35790    1.87490
H    -2.61620    2.41910    2.27130
H    -2.60010    6.71870    2.38840
H    -0.21210    4.65960    -0.52720
C    0.71280    1.24780    1.12990
C    0.76930    1.78880    2.43520
C    1.80380    1.46260    3.32260
C    2.81620    0.58950    2.91030
C    2.79650    0.04150    1.61050
C    1.73460    0.34250    0.71230
C    1.75650    -0.27060    -0.64010
C    2.83820    0.04690    -1.51140
C    2.87920    -0.49190    -2.81750
C    1.88260    -1.37190    -3.25260
C    0.83720    -1.71680    -2.38670
C    0.75210    -1.18420    -1.08050
P    -0.74280    -1.68680    -0.03800
C    -0.13880    -2.18770    1.65930
C    1.15140    -2.72440    1.85650
C    1.58860    -3.08750    3.14460
C    0.73240    -2.92410    4.24950
C    -0.56030    -2.39950    4.06190
C    -0.99230    -2.03470    2.77180
H    -1.98910    -1.64100    2.63790
H    1.06670    -3.20150    5.23860
H    1.81950    -2.84250    1.01470
C    -1.29120    -3.32580    -0.79200
C    -2.18290    -3.32790    -1.88820
C    -2.60470    -4.53450    -2.47900
C    -2.13550    -5.76270    -1.97950
C    -1.24560    -5.77790    -0.89030
C    -0.82750    -4.56790    -0.30290
H    -0.14530    -4.61010    0.53160
H    -2.45890    -6.69060    -2.42870
H    -2.55170    -2.39280    -2.28330
H    0.09110    -2.39890    -2.75930
H    1.91910    -1.78300    -4.25080
H    3.66630    -0.23780    -3.50840
O    3.82820    0.89750    -1.05490
C    5.17080    0.66410    -1.48350
H    5.80110    1.44060    -1.04980
H    5.26030    0.80080    -2.56040
C    5.69990    -0.72510    -1.05470
H    6.57030    -0.96470    -1.66550
H    4.96940    -1.49910    -1.28850
C    6.11510    -0.85830    0.42460
H    6.28500    -1.91280    0.64390
H    7.07500    -0.36310    0.57310
C    5.11800    -0.29000    1.44370
H    5.43670    -0.55270    2.45300
O    3.81050    -0.79890    1.20800
H    5.13030    0.80030    1.37920
H    3.60550    0.33660    3.60130
H    1.81960    1.88190    4.31800
H    0.00970    2.46580    2.78960
Cl    -4.13190    1.61710    -0.11610
Cl    -4.11200    -1.61930    0.07650
H    -1.00000    6.76140    0.48170
H    -3.40590    4.53710    3.27700
H    -1.12690    2.26870    -4.90660
H    2.60820    3.56840    -3.19250
H    -3.29100    -4.51730    -3.31330
H    -0.88320    -6.71850    -0.50150
H    2.58400    -3.48420    3.28180
H    -1.22150    -2.27830    4.90770

H C P Cl O 0
6-31G(d)
****
Pd 0
LANL2DZ
****

Pd 0
LANL2DZ

