%nprocs=16
%mem=18GB
%chk=catASium_T2_1.chk
# PBEPBE gen 6D pseudo=read scf=maxcycles=500 denfit int=(grid=ultrafine) empiricaldispersion=GD3BJ opt freq=noraman

title 

0 1
C    17.51260    4.14380    6.64530
C    18.50870    3.29860    6.10830
C    19.71030    3.05940    6.80550
C    19.93280    3.67700    8.05120
C    18.95630    4.53350    8.59460
C    17.75720    4.76110    7.89100
C    16.04270    3.58280    4.09610
C    16.06360    2.17560    4.01310
C    16.12240    1.52960    2.76200
C    16.16480    2.29590    1.58100
C    16.15220    3.70290    1.65170
C    16.10090    4.33910    2.90770
C    14.57280    3.60580    6.68810
C    14.66950    3.41530    8.19680
C    13.89550    2.09040    8.39060
C    12.69430    2.62710    7.55510
C    13.39070    3.12830    6.27490
C    13.70790    4.45910    8.80140
C    12.32970    3.90050    8.36840
C    14.65420    0.87540    7.79990
C    13.58250    1.70570    9.86380
C    11.49230    1.68460    7.38530
C    12.91040    3.12810    4.86660
C    12.65410    1.94930    4.19960
C    12.38150    3.97550    2.77310
C    12.77260    4.32610    4.05670
C    12.76200    0.52020    4.61510
C    12.12240    4.80920    1.56170
C    11.66690    6.40370    5.85960
C    10.44900    5.69630    5.74100
C    9.40070    5.91440    6.65560
C    9.56020    6.84530    7.69900
C    10.76710    7.55890    7.82260
C    11.81320    7.33920    6.90560
C    12.55750    7.30740    3.26950
C    13.54570    7.73430    2.35440
C    13.23130    8.62710    1.31190
C    11.91840    9.11290    1.17540
C    10.92580    8.70690    2.08580
C    11.24480    7.81400    3.12730
P    15.89850    4.47240    5.73400
P    13.06070    6.12610    4.64510
S    12.18230    2.26160    2.57050
Pd    15.24700    6.76040    5.45900
Cl    17.35120    7.47790    6.15840
Cl    14.65030    9.00850    5.27050
H    18.36290    2.82890    5.14820
C    20.76430    2.14970    6.20970
H    20.85520    3.49870    8.58520
C    19.18840    5.21090    9.92890
H    17.01240    5.42110    8.31120
H    16.02370    1.59330    4.91970
C    16.12550    0.01790    2.68090
H    16.20270    1.80210    0.62070
C    16.18820    4.53020    0.38390
H    16.09260    5.41710    2.95820
H    10.46310    7.52480    3.81220
H    11.67440    9.80120    0.37900
H    9.91780    9.08380    1.98970
H    14.55840    7.37260    2.44880
H    13.99860    8.94370    0.62030
H    12.73010    7.89980    7.00870
H    8.75680    7.01400    8.40150
H    10.88990    8.27840    8.61930
H    10.31370    4.98020    4.94290
H    8.47510    5.36600    6.55610
H    13.17100    -0.08240    3.80410
H    13.42030    0.39050    5.46560
H    11.78190    0.11360    4.86180
H    11.85740    4.18710    0.70660
H    11.29050    5.49320    1.71850
H    13.00970    5.36900    1.27340
H    10.78530    2.07190    6.65140
H    11.79520    0.68610    7.08320
H    10.95540    1.56750    8.32640
H    14.02200    -0.01190    7.77460
H    15.03470    1.03810    6.79620
H    15.52510    0.63260    8.40950
H    12.96220    0.81000    9.90210
H    14.50170    1.48360    10.40650
H    13.06380    2.46360    10.44560
H    15.67310    3.40690    8.61490
H    13.88650    5.46060    8.40830
H    13.79810    4.51610    9.88630
H    11.70450    3.67690    9.23260
H    11.76850    4.61170    7.77490
H    21.32550    1.63900    6.99270
H    20.30930    1.39080    5.57250
H    21.46330    2.73020    5.60740
H    18.85610    6.24880    9.89360
H    18.63270    4.69690    10.71340
H    20.24540    5.20560    10.19630
H    17.21610    4.79620    0.13700
H    15.76460    3.97680    -0.45470
H    15.61240    5.44850    0.50340
H    15.99600    -0.43390    3.66470
H    15.31250    -0.32630    2.04110
H    17.06820    -0.33610    2.26310

P Cl C H S 0
6-31G(d)
****
Pd 0
LANL2DZ
****

Pd 0
LANL2DZ

