%nprocs=16
%mem=18GB
%chk=catASium_T2_2.chk
# PBEPBE gen 6D pseudo=read scf=maxcycles=500 denfit int=(grid=ultrafine) empiricaldispersion=GD3BJ opt freq=noraman

title 

0 1
C    17.55420    4.10150    6.55280
C    17.75450    3.02190    7.43920
C    19.04160    2.69440    7.91010
C    20.15480    3.43940    7.47650
C    19.97800    4.49840    6.56530
C    18.68530    4.81340    6.10080
C    16.00120    3.61360    4.26700
C    15.99760    4.32700    3.05130
C    16.06880    3.64680    1.81920
C    16.16750    2.24160    1.80200
C    16.19490    1.52030    3.01180
C    16.11860    2.20940    4.23870
C    14.51690    3.69910    6.85010
C    14.54240    3.64980    8.37010
C    13.78170    2.32470    8.63050
C    12.60720    2.77390    7.70620
C    13.35020    3.19830    6.42550
C    13.52840    4.71780    8.83640
C    12.18030    4.09360    8.40080
C    14.56130    1.07040    8.15540
C    13.41510    2.04990    10.11520
C    11.43340    1.79460    7.54840
C    12.91290    3.13790    5.00620
C    12.68820    1.93080    4.38190
C    12.41360    3.89890    2.87360
C    12.78590    4.30330    4.14640
C    12.81260    0.52360    4.86270
C    12.15360    4.68830    1.63320
C    11.56320    6.44320    5.74950
C    10.35970    5.72730    5.55550
C    9.24250    5.96200    6.37990
C    9.31640    6.91910    7.40870
C    10.50760    7.64120    7.60820
C    11.62290    7.40390    6.78170
C    12.66490    7.26610    3.20640
C    13.71820    7.64500    2.34470
C    13.48790    8.49970    1.24970
C    12.19500    8.99710    1.00680
C    11.13820    8.64170    1.86440
C    11.37330    7.78670    2.95850
P    15.84890    4.52780    5.88580
P    13.05330    6.13390    4.65860
S    12.24340    2.17440    2.73280
Pd    15.15910    6.80810    5.64570
Cl    17.11330    7.56480    6.66320
Cl    14.52770    9.04260    5.41320
H    16.91660    2.42200    7.75060
C    19.22730    1.53550    8.86710
H    21.14440    3.18960    7.83120
C    21.17100    5.29190    6.07510
H    18.56090    5.61030    5.38300
H    15.92630    5.40250    3.06450
C    16.03340    4.41910    0.51720
H    16.22100    1.71530    0.85980
C    16.29790    0.01020    2.98970
H    16.13480    1.66230    5.16920
H    10.54360    7.53660    3.60110
H    12.01520    9.65640    0.16980
H    10.14510    9.02880    1.68740
H    14.71730    7.27860    2.52110
H    14.30430    8.77920    0.59950
H    12.52720    7.96850    6.94860
H    8.46020    7.10080    8.04220
H    10.56660    8.37950    8.39490
H    10.28670    4.99080    4.76810
H    8.32940    5.40630    6.22210
H    13.25770    -0.10420    4.09070
H    13.44850    0.44630    5.73760
H    11.83410    0.10750    5.10020
H    11.31120    5.36500    1.76350
H    13.03400    5.25340    1.33430
H    11.90470    4.03470    0.79700
H    10.74160    2.12810    6.77440
H    11.76790    0.79040    7.30330
H    10.86950    1.71180    8.47740
H    13.92690    0.18440    8.17140
H    14.97380    1.15570    7.15270
H    15.40630    0.86810    8.81380
H    12.79380    1.15790    10.19820
H    14.31360    1.87230    10.70650
H    12.87580    2.84880    10.61830
H    15.52450    3.74150    8.83150
H    13.70350    5.68500    8.36400
H    13.56920    4.87410    9.91460
H    11.52950    3.91930    9.25750
H    11.62210    4.73780    7.73170
H    20.06850    1.71590    9.53690
H    18.33650    1.38830    9.47850
H    19.41970    0.61740    8.31170
H    21.50200    4.91370    5.10780
H    20.91230    6.34530    5.96370
H    22.00380    5.22290    6.77540
H    16.06130    -0.41650    3.96460
H    15.60260    -0.40750    2.26120
H    17.30890    -0.29390    2.71790
H    15.41240    3.90290    -0.21560
H    15.62110    5.41810    0.66060
H    17.03980    4.51620    0.10960

P Cl C H S 0
6-31G(d)
****
Pd 0
LANL2DZ
****

Pd 0
LANL2DZ

