%NProcShared=32
%mem=18GB
%chk=catASium_T2_1_SPE_NoPd.chk
# PBE1PBE/def2TZVP int=(grid=ultrafine) empiricaldispersion=GD3BJ nmr=giao 

 title 

0 1
C    17.4797888636    4.1495980058    6.5596299863
C    18.3287605378    3.1515037605    6.0477555115
C    19.5134521555    2.8113660985    6.7208489532
C    19.8266154273    3.4872891919    7.914458211
C    18.9986595902    4.4939604227    8.4372664549
C    17.8196535333    4.8226617547    7.7447164503
C    15.9738250013    3.7802469249    4.0800694449
C    15.8053406244    2.403586079    3.8439571493
C    15.8590990538    1.8969832561    2.5361664013
C    16.0885032697    2.7947243645    1.4744649887
C    16.2778396298    4.1695102674    1.6880087189
C    16.2230686865    4.6522132836    3.0084086067
C    14.6826389932    3.5927642124    6.7506563416
C    14.792637401    3.5059570822    8.2694331784
C    13.9861275695    2.198964178    8.5527512083
C    12.7445604473    2.6957467168    7.7085264458
C    13.4470495014    3.123004194    6.3946097561
C    13.8365638019    4.6275039472    8.7927329015
C    12.4396412466    4.0618675318    8.4348097842
C    14.679376093    0.9359364997    8.0162817732
C    13.684250191    1.9541451951    10.0406588552
C    11.5144031135    1.802026989    7.6301724202
C    12.9042789742    3.109351482    5.0189135102
C    12.5806117079    1.9211361467    4.3735809389
C    12.5081337063    3.9205958897    2.8168113877
C    12.8416274151    4.2694256003    4.1227555073
C    12.6503901669    0.5021545405    4.8579892254
C    12.3930652335    4.6792214188    1.5227248658
C    11.5853667431    6.1674910339    5.8412871563
C    10.4575840811    5.3389655193    5.6627039866
C    9.3416909848    5.4824298016    6.4983704923
C    9.3435446425    6.4497112322    7.5139668556
C    10.4599726303    7.2816000418    7.6844857659
C    11.5801149392    7.1466563141    6.8539664677
C    12.6794661599    7.0930789347    3.3246861765
C    13.7439013639    7.5865520012    2.5467667422
C    13.4846084488    8.3741963821    1.4199725526
C    12.1624742139    8.6976037855    1.0774261142
C    11.1029336265    8.2420989188    1.8743276185
C    11.3577277416    7.4408841832    2.9968322857
P    15.8771166763    4.5242113572    5.7503155101
P    13.0610513346    5.9980272257    4.751329572
S    12.2212722231    2.2025264102    2.6974446089
H    18.0749180036    2.6372422169    5.1154633537
C    20.4438402294    1.7587387788    6.1629436677
H    20.7511134359    3.2293629256    8.4466663941
C    19.3660203946    5.2402075163    9.698307381
H    17.1831115357    5.6331500468    8.1116011372
H    15.608712742    1.7266518747    4.6826015834
C    15.6290573741    0.4289467769    2.2643605844
H    16.1161731453    2.4066975119    0.448353265
C    16.5168035849    5.1221833899    0.5393395192
H    16.3651038345    5.7198057252    3.2156167702
H    10.5282663021    7.0894523796    3.6181263944
H    11.9602345356    9.3244355924    0.2029249572
H    10.0719065685    8.5161601791    1.6275243045
H    14.7735068116    7.3746431308    2.8505495867
H    14.3185343793    8.7586774934    0.8237707366
H    12.4513431198    7.8000125495    6.9716726366
H    8.4746375211    6.5541024774    8.1721105223
H    10.465032521    8.0405352881    8.473523372
H    10.4612955336    4.5719756467    4.8820895753
H    8.4722641193    4.831546405    6.3579538413
H    13.1240104059    -0.149182808    4.1031039689
H    13.2500295693    0.4377384127    5.7764900406
H    11.6506248193    0.0838593885    5.0733082836
H    12.2691507012    3.9760673756    0.6827248097
H    11.54049367    5.3768781563    1.5123153696
H    13.3000358386    5.2735857883    1.3327571513
H    10.7980483227    2.185868019    6.8828638612
H    11.7574208999    0.760852477    7.3656266855
H    10.9987910755    1.7839951892    8.6056864072
H    14.007238888    0.0604530706    8.0765787389
H    15.015058433    1.0492858815    6.9741847468
H    15.5698490853    0.70530918    8.6270464271
H    13.0317071992    1.0705124832    10.1580001034
H    14.6225521648    1.7421493448    10.5831541062
H    13.1951428272    2.8009431029    10.5433297131
H    15.8150697317    3.5399005424    8.6720780456
H    14.0495622239    5.5897846766    8.2954942841
H    13.9607926366    4.7783821322    9.8786275156
H    11.8345674019    3.8625592958    9.3361307916
H    11.84997494    4.7276561898    7.7957896248
H    20.7951502857    1.0700681322    6.9511064096
H    19.9508554999    1.1591693002    5.3799314181
H    21.3421855457    2.2185708904    5.7112771056
H    19.4977429426    6.3169760693    9.48993943
H    18.5732940134    5.1561566831    10.4631282249
H    20.3031055953    4.8593174536    10.1363403969
H    17.5109842325    5.5980106679    0.6131144186
H    16.4585557143    4.6065659404    -0.4330803858
H    15.7712864966    5.9384031865    0.5376217677
H    15.7451201044    -0.1738503353    3.1804317632
H    14.6066550527    0.2576429584    1.8783440264
H    16.3318331516    0.040420142    1.5073803091

--Link1--
%NProcShared=32
%mem=18GB
%chk=catASium_T2_1_SPE_NoPd.chk
# PBE1PBE/def2TZVP int=(grid=ultrafine) empiricaldispersion=GD3BJ pop=nbo guess=read geom=check

 title 

0 1

