%nprocs=14
%mem=128GB
%chk=W001_1_6_F_1.chk
# PBEPBE gen 6D pseudo=read scf=maxcycles=500 denfit int=(grid=ultrafine) empiricaldispersion=GD3BJ opt freq=noraman

 W001_1_6_F

0 1
C    -0.39910    -3.71970    5.06500
C    -0.07630    -2.89800    6.19200
C    1.32960    -3.01160    6.43610
C    1.87490    -3.90690    5.46230
C    0.80660    -4.34330    4.61270
H    -0.76490    -2.26580    6.73510
H    1.88680    -2.48220    7.19630
H    2.91690    -4.18000    5.37080
H    0.89620    -5.00960    3.76650
H    -1.37740    -3.82300    4.61750
Fe    0.98280    -2.28040    4.53920
C    0.91990    -0.23620    4.57360
C    2.23390    -0.68970    4.22380
C    2.15220    -1.47430    3.02280
C    0.76650    -1.48680    2.65710
C    -0.00260    -0.74520    3.60620
H    0.66460    0.35010    5.44570
H    -1.07400    -0.59890    3.61590
C    0.21060    -2.10180    1.38370
P    0.69630    -0.79840    0.16270
H    0.69680    -3.05750    1.20100
C    -1.30910    -2.31890    1.46060
H    -1.68180    -2.86640    0.59720
H    -1.58320    -2.90890    2.33440
H    -1.85240    -1.37400    1.51120
C    -2.68590    -0.27280    -3.08190
C    -2.12670    0.86420    -2.46540
C    -1.12630    0.69910    -1.48320
C    -0.67710    -0.58370    -1.10410
C    -1.22230    -1.70470    -1.76630
C    -2.23320    -1.56220    -2.73900
H    -3.45540    -0.15080    -3.83020
C    -2.60330    2.25710    -2.85030
H    -0.69880    1.58050    -1.03010
H    -0.86140    -2.69670    -1.53660
C    -2.80380    -2.79820    -3.41680
C    3.64310    -2.47330    -3.12300
C    3.31230    -3.29270    -2.02830
C    2.44920    -2.79730    -1.02560
C    1.91020    -1.49280    -1.10110
C    2.24320    -0.70120    -2.22160
C    3.10640    -1.17770    -3.23170
H    4.30030    -2.84760    -3.89440
C    3.87870    -4.70370    -1.95930
H    2.21830    -3.44130    -0.19480
H    1.81610    0.28520    -2.32100
C    3.44960    -0.32770    -4.44600
F    3.17460    -1.01420    -5.55430
F    2.75150    0.80840    -4.46980
F    4.74940    -0.03830    -4.43350
F    5.20890    -4.65030    -1.90840
F    3.43340    -5.36990    -0.89310
F    3.51950    -5.37260    -3.05380
F    -1.62150    3.14760    -2.70550
F    -3.00890    2.28080    -4.12000
F    -3.62190    2.60260    -2.06560
F    -3.96540    -2.53500    -4.01510
F    -1.93580    -3.23450    -4.32770
F    -2.99940    -3.75920    -2.51350
P    3.69320    0.64910    1.31240
C    6.51000    2.57460    4.57880
C    5.90780    3.37560    3.59180
C    5.06660    2.78930    2.62680
C    4.80540    1.40150    2.63460
C    5.42740    0.60840    3.62570
C    6.27080    1.18850    4.59320
H    7.15640    3.02240    5.31970
H    6.08990    4.44030    3.57190
H    4.61540    3.41530    1.87010
H    5.26770    -0.45830    3.65270
H    6.73740    0.56870    5.34500
Cl    1.81810    3.11730    2.60360
Cl    -0.92330    1.73780    1.61780
H    3.13400    -0.47990    4.78400
C    5.48120    -3.12470    0.86760
C    4.68470    -3.95200    1.67440
C    3.59040    -3.40710    2.36740
C    3.28760    -2.03120    2.27430
C    4.08510    -1.19320    1.45080
C    5.17500    -1.75790    0.75170
H    6.32090    -3.54000    0.32780
H    4.91140    -5.00600    1.75440
H    2.99750    -4.07400    2.97080
H    5.79350    -1.15160    0.11190
C    5.72830    2.54090    -2.48630
C    6.52840    1.93800    -1.49860
C    5.92880    1.36790    -0.35930
C    4.52530    1.37330    -0.20230
C    3.73740    2.01040    -1.18350
C    4.33160    2.58520    -2.32340
H    6.18540    2.97950    -3.36180
H    7.60300    1.92110    -1.61000
H    6.55520    0.93450    0.40750
H    2.66660    2.06940    -1.06260
H    3.71750    3.06230    -3.07410
Pd    1.33700    1.16640    1.42140

F Cl H P C 0
6-31G(d)
****
Fe Pd 0
LANL2DZ
****

Fe Pd 0
LANL2DZ

