%nprocs=28
%mem=128GB
%chk=W001_1_6_F_3_SPE.chk
# PBE1PBE gen pseudo=read int=(grid=ultrafine) empiricaldispersion=GD3BJ nmr=giao 

W001_1_6_F_3 title 

0 1
C    0.2130719065    -4.0204012123    4.1239658019
C    0.1871412018    -3.4531310601    5.4435307826
C    1.5185205032    -3.5176611393    5.9807006587
C    2.3683728652    -4.1223430662    4.9921049275
C    1.5578292176    -4.4366183404    3.8442627006
H    -0.6790910806    -3.0041364222    5.9307805571
H    1.8387011967    -3.1266833169    6.9470179013
H    3.4424578294    -4.2855815544    5.088340168
H    1.899578868    -4.8960243711    2.9153134296
H    -0.6343817443    -4.0953552059    3.4412879827
Fe    1.4970965312    -2.4220194579    4.2538838112
C    1.7156306268    -0.4747283939    4.8454336423
C    2.8910122212    -0.9403661388    4.1797574595
C    2.5348978499    -1.3528192584    2.8426465767
C    1.0910947498    -1.1779873637    2.7052369316
C    0.6142000572    -0.6073249729    3.9427496438
H    1.6589308051    -0.1230617004    5.8757115404
H    -0.4231543531    -0.3682214834    4.1704973524
C    0.1898675951    -1.5792878324    1.5533573649
P    0.6315330674    -0.5500425507    0.0421620711
H    0.3809355446    -2.6370595318    1.3012870031
C    -1.3023969031    -1.4126863925    1.8927237508
H    -1.9410512368    -1.835833305    1.1033307375
H    -1.51915651    -1.9456554393    2.8331868002
H    -1.5634597041    -0.348052204    2.0090900901
C    -2.8541392618    -0.7678563654    -3.0422623962
C    -2.2681180039    0.4652055995    -2.7352094603
C    -1.2457116678    0.5562921991    -1.7778649792
C    -0.8003757019    -0.6029797199    -1.1251631752
C    -1.3673196481    -1.8481938025    -1.4520308189
C    -2.3986569329    -1.9255475334    -2.3959005298
H    -3.6538141913    -0.8292308122    -3.7842770183
C    -2.776845689    1.7285583843    -3.3916872791
H    -0.811127007    1.526432976    -1.5255557138
H    -1.0074782345    -2.7689413469    -0.9821545589
C    -2.9601258293    -3.2737119236    -2.7762862676
C    3.3198568344    -3.0953024714    -2.8091019828
C    2.8737689734    -3.6653107595    -1.6102390688
C    2.0871262786    -2.9269554658    -0.7169922975
C    1.7413216207    -1.5993267957    -1.009368307
C    2.1716218943    -1.0330998845    -2.2227255364
C    2.9610209949    -1.7754977353    -3.1111968772
H    3.9367117194    -3.6726240213    -3.5027032887
C    3.2297334695    -5.1012206406    -1.3081169309
H    1.7755832165    -3.4002294747    0.2147361606
H    1.8799802753    -0.0100720065    -2.4830523267
C    3.4892142108    -1.122280791    -4.3656124943
F    3.697593194    -2.0253008093    -5.3567591987
F    2.6471937091    -0.1668108797    -4.8319942254
F    4.692301213    -0.5121661293    -4.1225839994
F    4.5640881341    -5.3241323277    -1.4751002793
F    2.911819477    -5.4538542672    -0.0306810009
F    2.5781770173    -5.9566578713    -2.1395267092
F    -1.772536731    2.6198262465    -3.5934110023
F    -3.3490195592    1.4653076386    -4.5999358789
F    -3.7165219003    2.3377748659    -2.6234538267
F    -4.2548208868    -3.1848936145    -3.1774179894
F    -2.2566852831    -3.8307090063    -3.8012677314
F    -2.9053342357    -4.148799097    -1.7332799148
P    3.6001666703    0.9792038323    0.9685494088
C    5.234100746    2.0266148777    5.1931637812
C    6.0181449588    1.3043685719    4.2794125932
C    5.5149979803    1.0062872891    3.0073224947
C    4.2236438891    1.4396664731    2.6389667912
C    3.4415246037    2.1648018856    3.5538918828
C    3.9507124103    2.4545202068    4.8274723424
H    5.6273544705    2.2562925214    6.188945429
H    7.0234237343    0.9708930039    4.5570296148
H    6.1231676502    0.4301286746    2.3021758769
H    2.4445972328    2.5047946991    3.2638088052
H    3.3350842604    3.0187226658    5.5352008813
Cl    2.1003023044    3.7479273187    1.0057996629
Cl    -0.9063934195    2.1182785952    0.9997640119
H    3.9029696408    -0.963478272    4.5837274381
C    5.6349341244    -2.5269377691    0.0697390919
C    5.144887515    -3.4310882758    1.016573199
C    4.1264756206    -3.0313907572    1.889611458
C    3.5720364833    -1.7389393438    1.8461889204
C    4.1176391745    -0.8029396275    0.9159691165
C    5.1329121775    -1.2192305935    0.0336695402
H    6.4163787625    -2.8275944168    -0.6351504349
H    5.5349738972    -4.4519862699    1.0628808449
H    3.7319250987    -3.7265831244    2.6323462133
H    5.5534914322    -0.5078713596    -0.6811788044
C    6.2252665913    3.2890841065    -2.0864399263
C    5.3918154644    2.2462185621    -2.5167190329
C    4.6172281392    1.5446545171    -1.5869140839
C    4.6883441248    1.8580220822    -0.2155068563
C    5.5208796318    2.9089343352    0.2112520029
C    6.2833618673    3.6192413487    -0.7256203563
H    6.8235115669    3.8481465741    -2.8129140582
H    5.3347366778    1.9740108557    -3.5748120596
H    3.9656560009    0.7384700965    -1.9306849138
H    5.5594860943    3.1807885672    1.2688548404
H    6.9211431344    4.441851209    -0.386668015
Pd    1.3880567153    1.5063062972    0.6659095173

H P C Cl F 0
def2TZVP
****
Pd Fe 0
SDD
****

Pd Fe 0
SDD

--Link1--
%nprocs=28
%mem=128GB
%chk=W001_1_6_F_3_SPE.chk
# PBE1PBE gen pseudo=read int=(grid=ultrafine) empiricaldispersion=GD3BJ pop=nbo guess=read geom=check

W001_1_6_F_3 title 

0 1

H P C Cl F 0
def2TZVP
****
Pd Fe 0
SDD
****

Pd Fe 0
SDD

