W001_1_6_F
                    3D
 Structure written by MMmdl.
 96 99  0  0  1  0            999 V2000
   -0.3991   -3.7197    5.0650 C   0  0  3  0  0  0
   -0.0763   -2.8980    6.1920 C   0  0  3  0  0  0
    1.3296   -3.0116    6.4361 C   0  0  3  0  0  0
    1.8749   -3.9069    5.4623 C   0  0  3  0  0  0
    0.8066   -4.3433    4.6127 C   0  5  3  0  0  0
   -0.7649   -2.2658    6.7351 H   0  0  0  0  0  0
    1.8868   -2.4822    7.1963 H   0  0  0  0  0  0
    2.9169   -4.1800    5.3708 H   0  0  0  0  0  0
    0.8962   -5.0096    3.7665 H   0  0  0  0  0  0
   -1.3774   -3.8230    4.6175 H   0  0  0  0  0  0
    0.9828   -2.2804    4.5392 Fe  0  2  0  0  0  0
    0.9199   -0.2362    4.5736 C   0  5  1  0  0  0
    2.2339   -0.6897    4.2238 C   0  0  2  0  0  0
    2.1522   -1.4743    3.0228 C   0  0  2  0  0  0
    0.7665   -1.4868    2.6571 C   0  0  2  0  0  0
   -0.0026   -0.7452    3.6062 C   0  0  1  0  0  0
    0.6646    0.3501    5.4457 H   0  0  0  0  0  0
   -1.0740   -0.5989    3.6159 H   0  0  0  0  0  0
    0.2106   -2.1018    1.3837 C   0  0  2  0  0  0
    0.6963   -0.7984    0.1627 P   0  0  0  0  0  0
    0.6968   -3.0575    1.2010 H   0  0  0  0  0  0
   -1.3091   -2.3189    1.4606 C   0  0  0  0  0  0
   -1.6818   -2.8664    0.5972 H   0  0  0  0  0  0
   -1.5832   -2.9089    2.3344 H   0  0  0  0  0  0
   -1.8524   -1.3740    1.5112 H   0  0  0  0  0  0
   -2.6859   -0.2728   -3.0819 C   0  0  0  0  0  0
   -2.1267    0.8642   -2.4654 C   0  0  0  0  0  0
   -1.1263    0.6991   -1.4832 C   0  0  0  0  0  0
   -0.6771   -0.5837   -1.1041 C   0  0  0  0  0  0
   -1.2223   -1.7047   -1.7663 C   0  0  0  0  0  0
   -2.2332   -1.5622   -2.7390 C   0  0  0  0  0  0
   -3.4554   -0.1508   -3.8302 H   0  0  0  0  0  0
   -2.6033    2.2571   -2.8503 C   0  0  0  0  0  0
   -0.6988    1.5805   -1.0301 H   0  0  0  0  0  0
   -0.8614   -2.6967   -1.5366 H   0  0  0  0  0  0
   -2.8038   -2.7982   -3.4168 C   0  0  0  0  0  0
    3.6431   -2.4733   -3.1230 C   0  0  0  0  0  0
    3.3123   -3.2927   -2.0283 C   0  0  0  0  0  0
    2.4492   -2.7973   -1.0256 C   0  0  0  0  0  0
    1.9102   -1.4928   -1.1011 C   0  0  0  0  0  0
    2.2432   -0.7012   -2.2216 C   0  0  0  0  0  0
    3.1064   -1.1777   -3.2317 C   0  0  0  0  0  0
    4.3003   -2.8476   -3.8944 H   0  0  0  0  0  0
    3.8787   -4.7037   -1.9593 C   0  0  0  0  0  0
    2.2183   -3.4413   -0.1948 H   0  0  0  0  0  0
    1.8161    0.2852   -2.3210 H   0  0  0  0  0  0
    3.4496   -0.3277   -4.4460 C   0  0  0  0  0  0
    3.1746   -1.0142   -5.5543 F   0  0  0  0  0  0
    2.7515    0.8084   -4.4698 F   0  0  0  0  0  0
    4.7494   -0.0383   -4.4335 F   0  0  0  0  0  0
    5.2089   -4.6503   -1.9084 F   0  0  0  0  0  0
    3.4334   -5.3699   -0.8931 F   0  0  0  0  0  0
    3.5195   -5.3726   -3.0538 F   0  0  0  0  0  0
   -1.6215    3.1476   -2.7055 F   0  0  0  0  0  0
   -3.0089    2.2808   -4.1200 F   0  0  0  0  0  0
   -3.6219    2.6026   -2.0656 F   0  0  0  0  0  0
   -3.9654   -2.5350   -4.0151 F   0  0  0  0  0  0
   -1.9358   -3.2345   -4.3277 F   0  0  0  0  0  0
   -2.9994   -3.7592   -2.5135 F   0  0  0  0  0  0
    3.6932    0.6491    1.3124 P   0  0  0  0  0  0
    6.5100    2.5746    4.5788 C   0  0  0  0  0  0
    5.9078    3.3756    3.5918 C   0  0  0  0  0  0
    5.0666    2.7893    2.6268 C   0  0  0  0  0  0
    4.8054    1.4015    2.6346 C   0  0  0  0  0  0
    5.4274    0.6084    3.6257 C   0  0  0  0  0  0
    6.2708    1.1885    4.5932 C   0  0  0  0  0  0
    7.1564    3.0224    5.3197 H   0  0  0  0  0  0
    6.0899    4.4403    3.5719 H   0  0  0  0  0  0
    4.6154    3.4153    1.8701 H   0  0  0  0  0  0
    5.2677   -0.4583    3.6527 H   0  0  0  0  0  0
    6.7374    0.5687    5.3450 H   0  0  0  0  0  0
    1.8181    3.1173    2.6036 Cl  0  0  0  0  0  0
   -0.9233    1.7378    1.6178 Cl  0  0  0  0  0  0
    3.1340   -0.4799    4.7840 H   0  0  0  0  0  0
    5.4812   -3.1247    0.8676 C   0  0  0  0  0  0
    4.6847   -3.9520    1.6744 C   0  0  0  0  0  0
    3.5904   -3.4071    2.3674 C   0  0  0  0  0  0
    3.2876   -2.0312    2.2743 C   0  0  0  0  0  0
    4.0851   -1.1932    1.4508 C   0  0  0  0  0  0
    5.1750   -1.7579    0.7517 C   0  0  0  0  0  0
    6.3209   -3.5400    0.3278 H   0  0  0  0  0  0
    4.9114   -5.0060    1.7544 H   0  0  0  0  0  0
    2.9975   -4.0740    2.9708 H   0  0  0  0  0  0
    5.7935   -1.1516    0.1119 H   0  0  0  0  0  0
    5.7283    2.5409   -2.4863 C   0  0  0  0  0  0
    6.5284    1.9380   -1.4986 C   0  0  0  0  0  0
    5.9288    1.3679   -0.3593 C   0  0  0  0  0  0
    4.5253    1.3733   -0.2023 C   0  0  0  0  0  0
    3.7374    2.0104   -1.1835 C   0  0  0  0  0  0
    4.3316    2.5852   -2.3234 C   0  0  0  0  0  0
    6.1854    2.9795   -3.3618 H   0  0  0  0  0  0
    7.6030    1.9211   -1.6100 H   0  0  0  0  0  0
    6.5552    0.9345    0.4075 H   0  0  0  0  0  0
    2.6666    2.0694   -1.0626 H   0  0  0  0  0  0
    3.7175    3.0623   -3.0741 H   0  0  0  0  0  0
    1.3370    1.1664    1.4214 Pd  0  0  0  0  0  0
  1 10  1  0  0  0
  1  5  1  0  0  0
  1  2  2  0  0  0
  2  3  1  0  0  0
  2  6  1  0  0  0
  3  4  2  0  0  0
  3  7  1  0  0  0
  4  8  1  0  0  0
  4  5  1  0  0  0
  5  9  1  0  0  0
 12 17  1  0  0  0
 12 16  1  0  0  0
 12 13  1  0  0  0
 13 14  2  0  0  0
 13 74  1  0  0  0
 14 78  1  0  0  0
 14 15  1  0  0  0
 15 19  1  0  0  0
 15 16  2  0  0  0
 16 18  1  0  0  0
 19 21  1  0  0  0
 19 22  1  0  0  0
 19 20  1  0  0  0
 20 40  1  0  0  0
 20 29  1  0  0  0
 22 23  1  0  0  0
 22 24  1  0  0  0
 22 25  1  0  0  0
 26 31  1  0  0  0
 26 27  2  0  0  0
 26 32  1  0  0  0
 27 28  1  0  0  0
 27 33  1  0  0  0
 28 29  2  0  0  0
 28 34  1  0  0  0
 29 30  1  0  0  0
 30 35  1  0  0  0
 30 31  2  0  0  0
 31 36  1  0  0  0
 33 56  1  0  0  0
 33 54  1  0  0  0
 33 55  1  0  0  0
 36 58  1  0  0  0
 36 57  1  0  0  0
 36 59  1  0  0  0
 37 43  1  0  0  0
 37 38  1  0  0  0
 37 42  2  0  0  0
 38 44  1  0  0  0
 38 39  2  0  0  0
 39 45  1  0  0  0
 39 40  1  0  0  0
 40 41  2  0  0  0
 41 42  1  0  0  0
 41 46  1  0  0  0
 42 47  1  0  0  0
 44 51  1  0  0  0
 44 53  1  0  0  0
 44 52  1  0  0  0
 47 50  1  0  0  0
 47 48  1  0  0  0
 47 49  1  0  0  0
 60 79  1  0  0  0
 60 64  1  0  0  0
 60 88  1  0  0  0
 61 66  1  0  0  0
 61 62  2  0  0  0
 61 67  1  0  0  0
 62 63  1  0  0  0
 62 68  1  0  0  0
 63 64  2  0  0  0
 63 69  1  0  0  0
 64 65  1  0  0  0
 65 70  1  0  0  0
 65 66  2  0  0  0
 66 71  1  0  0  0
 72 96  1  0  0  0
 73 96  1  0  0  0
 75 81  1  0  0  0
 75 76  1  0  0  0
 75 80  2  0  0  0
 76 82  1  0  0  0
 76 77  2  0  0  0
 77 83  1  0  0  0
 77 78  1  0  0  0
 78 79  2  0  0  0
 79 80  1  0  0  0
 80 84  1  0  0  0
 85 90  1  0  0  0
 85 86  2  0  0  0
 85 91  1  0  0  0
 86 87  1  0  0  0
 86 92  1  0  0  0
 87 88  2  0  0  0
 87 93  1  0  0  0
 88 89  1  0  0  0
 89 94  1  0  0  0
 89 90  2  0  0  0
 90 95  1  0  0  0
M  CHG  3   5  -1  11   2  12  -1
M  END
> <s_m_entry_id>
82

> <s_m_entry_name>
W001_1_6_F.1

> <program>
Gaussian 09, Revision D.01

> <chiral flag>
1

> <version>
0

> <s_m_Source_Path>
/home/sigmangrp/Dropbox/Current Group People/Lucy_v_D/Macromodel/Sam_DFT/Next

> <s_m_Source_File>
W001_1_6_F.log

> <i_m_Source_File_Index>
1

> <r_mmod_Potential_Energy-OPLS-2005>
477.262298583984

> <b_mmod_Minimization_Converged-OPLS-2005>
1

> <r_mmod_RMS_Derivative-OPLS-2005>
0.000921741826459765

> <i_mmod_Times_Found-OPLS-2005>
314

> <r_mmod_Relative_Potential_Energy-OPLS-2005>
0

> <i_mmod_Conformation-OPLS-2005>
1

> <i_mmod_Serial_Number-OPLS-2005>
4

> <s_m_job_name>
mmod_csearch_2489

> <s_m_subgroup_title>
mmod_csearch_2489-out1

> <s_m_subgroupid>
mmod_csearch_2489-out1

> <b_m_subgroup_collapsed>
0

$$$$
