W001_1_6_F
                    3D
 Structure written by MMmdl.
 96 99  0  0  1  0            999 V2000
   -0.5271   -3.7055    4.9725 C   0  0  3  0  0  0
   -0.2432   -2.8971    6.1191 C   0  0  3  0  0  0
    1.1507   -3.0250    6.4179 C   0  0  3  0  0  0
    1.7272   -3.9155    5.4579 C   0  0  3  0  0  0
    0.6907   -4.3345    4.5616 C   0  5  3  0  0  0
   -0.9480   -2.2648    6.6408 H   0  0  0  0  0  0
    1.6818   -2.5080    7.2049 H   0  0  0  0  0  0
    2.7699   -4.1962    5.4065 H   0  0  0  0  0  0
    0.8091   -4.9932    3.7130 H   0  0  0  0  0  0
   -1.4882   -3.7972    4.4870 H   0  0  0  0  0  0
    0.8862   -2.2725    4.5159 Fe  0  2  0  0  0  0
    0.8383   -0.2279    4.5705 C   0  5  1  0  0  0
    2.1605   -0.6913    4.2687 C   0  0  2  0  0  0
    2.1202   -1.4569    3.0548 C   0  0  2  0  0  0
    0.7514   -1.4591    2.6353 C   0  0  2  0  0  0
   -0.0485   -0.7186    3.5603 C   0  0  1  0  0  0
    0.5518    0.3488    5.4392 H   0  0  0  0  0  0
   -1.1184   -0.5645    3.5287 H   0  0  0  0  0  0
    0.2396   -2.0693    1.3442 C   0  0  2  0  0  0
    0.7195   -0.7510    0.1381 P   0  0  0  0  0  0
    0.7533   -3.0106    1.1567 H   0  0  0  0  0  0
   -1.2752   -2.3279    1.3949 C   0  0  0  0  0  0
   -1.6192   -2.8895    0.5289 H   0  0  0  0  0  0
   -1.5489   -2.9242    2.2640 H   0  0  0  0  0  0
   -1.8454   -1.3985    1.4345 H   0  0  0  0  0  0
   -2.6901   -0.2836   -3.0980 C   0  0  0  0  0  0
   -2.1522    0.8636   -2.4815 C   0  0  0  0  0  0
   -1.1433    0.7178   -1.5048 C   0  0  0  0  0  0
   -0.6667   -0.5557   -1.1258 C   0  0  0  0  0  0
   -1.1894   -1.6853   -1.7925 C   0  0  0  0  0  0
   -2.2059   -1.5630   -2.7616 C   0  0  0  0  0  0
   -3.4657   -0.1756   -3.8420 H   0  0  0  0  0  0
   -2.6624    2.2461   -2.8611 C   0  0  0  0  0  0
   -0.7284    1.6088   -1.0596 H   0  0  0  0  0  0
   -0.8057   -2.6704   -1.5705 H   0  0  0  0  0  0
   -2.7485   -2.8122   -3.4381 C   0  0  0  0  0  0
    3.5926   -2.4553   -3.1921 C   0  0  0  0  0  0
    3.4241   -3.1869   -2.0012 C   0  0  0  0  0  0
    2.5942   -2.6719   -0.9809 C   0  0  0  0  0  0
    1.9258   -1.4370   -1.1350 C   0  0  0  0  0  0
    2.1214   -0.7183   -2.3358 C   0  0  0  0  0  0
    2.9446   -1.2179   -3.3671 C   0  0  0  0  0  0
    4.2208   -2.8502   -3.9774 H   0  0  0  0  0  0
    4.1353   -4.5222   -1.8382 C   0  0  0  0  0  0
    2.4823   -3.2472   -0.0774 H   0  0  0  0  0  0
    1.6210    0.2280   -2.4844 H   0  0  0  0  0  0
    3.1174   -0.4444   -4.6656 C   0  0  0  0  0  0
    4.3534   -0.6033   -5.1396 F   0  0  0  0  0  0
    2.2486   -0.9075   -5.5621 F   0  0  0  0  0  0
    2.8965    0.8574   -4.4841 F   0  0  0  0  0  0
    5.4383   -4.3083   -1.6638 F   0  0  0  0  0  0
    3.6648   -5.2085   -0.7959 F   0  0  0  0  0  0
    3.9648   -5.2568   -2.9365 F   0  0  0  0  0  0
   -1.7039    3.1610   -2.7143 F   0  0  0  0  0  0
   -3.0704    2.2641   -4.1301 F   0  0  0  0  0  0
   -3.6888    2.5630   -2.0742 F   0  0  0  0  0  0
   -1.8339   -3.2808   -4.2854 F   0  0  0  0  0  0
   -3.0004   -3.7446   -2.5190 F   0  0  0  0  0  0
   -3.8727   -2.5608   -4.1086 F   0  0  0  0  0  0
    3.7276    0.6576    1.3164 P   0  0  0  0  0  0
    6.5557    2.4105    4.6709 C   0  0  0  0  0  0
    5.1702    2.3243    4.8976 C   0  0  0  0  0  0
    4.3241    1.8054    3.8986 C   0  0  0  0  0  0
    4.8410    1.3713    2.6591 C   0  0  0  0  0  0
    6.2361    1.4585    2.4499 C   0  0  0  0  0  0
    7.0889    1.9752    3.4443 C   0  0  0  0  0  0
    7.2070    2.8102    5.4346 H   0  0  0  0  0  0
    4.7537    2.6592    5.8364 H   0  0  0  0  0  0
    3.2643    1.7476    4.0924 H   0  0  0  0  0  0
    6.6632    1.1284    1.5144 H   0  0  0  0  0  0
    8.1522    2.0383    3.2639 H   0  0  0  0  0  0
    1.8948    3.2768    2.3552 Cl  0  0  0  0  0  0
   -0.8710    1.8349    1.5503 Cl  0  0  0  0  0  0
    3.0453   -0.5076    4.8628 H   0  0  0  0  0  0
    5.6726   -3.0556    1.2569 C   0  0  0  0  0  0
    4.7882   -3.9024    1.9421 C   0  0  0  0  0  0
    3.6115   -3.3758    2.5014 C   0  0  0  0  0  0
    3.2961   -2.0057    2.3687 C   0  0  0  0  0  0
    4.1506   -1.1614    1.6112 C   0  0  0  0  0  0
    5.3548   -1.6957    1.1012 C   0  0  0  0  0  0
    6.5922   -3.4488    0.8463 H   0  0  0  0  0  0
    5.0244   -4.9512    2.0548 H   0  0  0  0  0  0
    2.9710   -4.0504    3.0444 H   0  0  0  0  0  0
    6.0562   -1.0577    0.5857 H   0  0  0  0  0  0
    5.8273    2.4322   -2.5112 C   0  0  0  0  0  0
    5.6270    1.0429   -2.4220 C   0  0  0  0  0  0
    5.0011    0.4930   -1.2865 C   0  0  0  0  0  0
    4.5795    1.3176   -0.2215 C   0  0  0  0  0  0
    4.7819    2.7104   -0.3274 C   0  0  0  0  0  0
    5.4026    3.2674   -1.4619 C   0  0  0  0  0  0
    6.3030    2.8569   -3.3838 H   0  0  0  0  0  0
    5.9497    0.4015   -3.2295 H   0  0  0  0  0  0
    4.8422   -0.5724   -1.2436 H   0  0  0  0  0  0
    4.4634    3.3608    0.4760 H   0  0  0  0  0  0
    5.5531    4.3356   -1.5254 H   0  0  0  0  0  0
    1.3807    1.2341    1.3520 Pd  0  0  0  0  0  0
  1 10  1  0  0  0
  1  5  1  0  0  0
  1  2  2  0  0  0
  2  3  1  0  0  0
  2  6  1  0  0  0
  3  4  2  0  0  0
  3  7  1  0  0  0
  4  8  1  0  0  0
  4  5  1  0  0  0
  5  9  1  0  0  0
 12 17  1  0  0  0
 12 16  1  0  0  0
 12 13  1  0  0  0
 13 14  2  0  0  0
 13 74  1  0  0  0
 14 78  1  0  0  0
 14 15  1  0  0  0
 15 19  1  0  0  0
 15 16  2  0  0  0
 16 18  1  0  0  0
 19 21  1  0  0  0
 19 22  1  0  0  0
 19 20  1  0  0  0
 20 40  1  0  0  0
 20 29  1  0  0  0
 22 23  1  0  0  0
 22 24  1  0  0  0
 22 25  1  0  0  0
 26 31  1  0  0  0
 26 27  2  0  0  0
 26 32  1  0  0  0
 27 28  1  0  0  0
 27 33  1  0  0  0
 28 29  2  0  0  0
 28 34  1  0  0  0
 29 30  1  0  0  0
 30 35  1  0  0  0
 30 31  2  0  0  0
 31 36  1  0  0  0
 33 56  1  0  0  0
 33 54  1  0  0  0
 33 55  1  0  0  0
 36 58  1  0  0  0
 36 57  1  0  0  0
 36 59  1  0  0  0
 37 43  1  0  0  0
 37 38  1  0  0  0
 37 42  2  0  0  0
 38 44  1  0  0  0
 38 39  2  0  0  0
 39 45  1  0  0  0
 39 40  1  0  0  0
 40 41  2  0  0  0
 41 42  1  0  0  0
 41 46  1  0  0  0
 42 47  1  0  0  0
 44 51  1  0  0  0
 44 53  1  0  0  0
 44 52  1  0  0  0
 47 50  1  0  0  0
 47 48  1  0  0  0
 47 49  1  0  0  0
 60 79  1  0  0  0
 60 64  1  0  0  0
 60 88  1  0  0  0
 61 66  1  0  0  0
 61 62  2  0  0  0
 61 67  1  0  0  0
 62 63  1  0  0  0
 62 68  1  0  0  0
 63 64  2  0  0  0
 63 69  1  0  0  0
 64 65  1  0  0  0
 65 70  1  0  0  0
 65 66  2  0  0  0
 66 71  1  0  0  0
 72 96  1  0  0  0
 73 96  1  0  0  0
 75 81  1  0  0  0
 75 76  1  0  0  0
 75 80  2  0  0  0
 76 82  1  0  0  0
 76 77  2  0  0  0
 77 83  1  0  0  0
 77 78  1  0  0  0
 78 79  2  0  0  0
 79 80  1  0  0  0
 80 84  1  0  0  0
 85 90  1  0  0  0
 85 86  2  0  0  0
 85 91  1  0  0  0
 86 87  1  0  0  0
 86 92  1  0  0  0
 87 88  2  0  0  0
 87 93  1  0  0  0
 88 89  1  0  0  0
 89 94  1  0  0  0
 89 90  2  0  0  0
 90 95  1  0  0  0
M  CHG  3   5  -1  11   2  12  -1
M  END
> <s_m_entry_id>
83

> <s_m_entry_name>
W001_1_6_F.1

> <program>
Gaussian 09, Revision D.01

> <chiral flag>
1

> <version>
0

> <s_m_Source_Path>
/home/sigmangrp/Dropbox/Current Group People/Lucy_v_D/Macromodel/Sam_DFT/Next

> <s_m_Source_File>
W001_1_6_F.log

> <i_m_Source_File_Index>
1

> <r_mmod_Potential_Energy-OPLS-2005>
481.8232421875

> <b_mmod_Minimization_Converged-OPLS-2005>
1

> <r_mmod_RMS_Derivative-OPLS-2005>
0.000932164082769305

> <i_mmod_Times_Found-OPLS-2005>
310

> <r_mmod_Relative_Potential_Energy-OPLS-2005>
4.56094360351562

> <i_mmod_Conformation-OPLS-2005>
2

> <i_mmod_Serial_Number-OPLS-2005>
4

> <s_m_job_name>
mmod_csearch_2489

> <s_m_subgroup_title>
mmod_csearch_2489-out1

> <s_m_subgroupid>
mmod_csearch_2489-out1

> <b_m_subgroup_collapsed>
0

$$$$
