%nprocs=28
%mem=128GB
%chk=W001_1_6_F_1_SPE_NoPd.chk
# PBE1PBE gen pseudo=read int=(grid=ultrafine) empiricaldispersion=GD3BJ nmr=giao 

W001_1_6_F_1 title 

0 1
C    -0.1971867679    -3.5551277942    5.2285849396
C    0.4189151073    -2.8689344904    6.3315110787
C    1.8311882879    -3.1271931117    6.2838694362
C    2.0888867577    -3.9756746847    5.1551122388
C    0.8363504357    -4.2389072597    4.4981728274
H    -0.0896634289    -2.2187941257    7.0441475681
H    2.5821012376    -2.7130888279    6.9574660112
H    3.0716110056    -4.3328420703    4.8457435652
H    0.6940059684    -4.837825916    3.5972016043
H    -1.2570244417    -3.5292713559    4.972873849
Fe    1.1963505998    -2.22288392    4.5543525078
C    1.1242381564    -0.1820452772    4.7125360864
C    2.413695972    -0.6084401149    4.2566867353
C    2.2392443693    -1.348493788    3.0294570548
C    0.8101491466    -1.3866520716    2.7474770956
C    0.1412134982    -0.6484515052    3.7848730112
H    0.9218814241    0.3659503802    5.6326187933
H    -0.9327546407    -0.4895864062    3.8588835122
C    0.182839697    -1.9604332382    1.5025689308
P    0.6689760652    -0.7430281586    0.1229319235
H    0.675759181    -2.9203287787    1.2734527476
C    -1.3319600314    -2.1673665405    1.6284155828
H    -1.7484498611    -2.7010217945    0.7608353391
H    -1.5295308817    -2.7686667257    2.5323243715
H    -1.8516000141    -1.2005797029    1.7225156652
C    -2.5579811324    -0.4183868173    -3.2234192054
C    -1.9781625138    0.7353449371    -2.6818219904
C    -1.0423290389    0.6460089156    -1.6414606634
C    -0.670154747    -0.612704189    -1.1429284789
C    -1.2233227492    -1.7736232229    -1.7089387175
C    -2.1755815534    -1.6734710438    -2.7319738588
H    -3.2940286454    -0.3414995662    -4.0271967799
C    -2.4045634242    2.0995448719    -3.1719666604
H    -0.6141629773    1.5520819045    -1.2066594858
H    -0.9131684586    -2.7664114216    -1.3704014761
C    -2.7235369522    -2.9316853532    -3.3590114258
C    3.5287575555    -2.858567741    -2.9125771188
C    2.8329602555    -3.6363360984    -1.9795814608
C    2.0034826211    -3.0365093894    -1.0217747012
C    1.8543716351    -1.6411500747    -0.9901025375
C    2.5433886918    -0.8626056877    -1.9366448154
C    3.3828693854    -1.4666342214    -2.8806592685
H    4.1774867989    -3.3300572753    -3.655241838
C    3.0501668656    -5.1294465006    -1.9765818705
H    1.4870265529    -3.6803479235    -0.3072898831
H    2.4382852806    0.2253710794    -1.9322287115
C    4.2155811546    -0.6006656741    -3.7935753127
F    4.5809627334    -1.2594703282    -4.9247357438
F    3.5572818122    0.5284618116    -4.1622999329
F    5.3656991525    -0.2120282513    -3.1656968686
F    4.3063153873    -5.4408263432    -1.5322920863
F    2.1676157165    -5.7766035523    -1.1710269071
F    2.9380391294    -5.6511908376    -3.2255188447
F    -1.3689630785    2.9806363345    -3.1438037817
F    -2.8691891802    2.0469190843    -4.4514800739
F    -3.3973007784    2.6143236376    -2.4019657305
F    -3.967504935    -2.7406524417    -3.870005635
F    -1.9294737761    -3.3631969719    -4.3787617078
F    -2.7954293758    -3.9478150594    -2.453795675
P    3.5687017135    0.8475425934    1.264151145
C    6.3680577812    2.3546710429    4.6730263232
C    5.5987412698    3.2608458694    3.9290624139
C    4.7329387998    2.8044847944    2.9281931145
C    4.6208166906    1.422700761    2.6695519974
C    5.4112197749    0.516186551    3.4045884761
C    6.2772699582    0.9825930972    4.4035069708
H    7.043371193    2.7175711538    5.4546911281
H    5.6691092415    4.3351276578    4.1269838312
H    4.1274569454    3.5123109827    2.3587140654
H    5.362583592    -0.5554027262    3.1936135445
H    6.8858900277    0.2669018879    4.9660842383
H    3.3625155456    -0.4307921108    4.7600879648
C    5.1854529324    -2.8391677035    0.2481228629
C    4.5252183937    -3.7173856673    1.116021826
C    3.5831770351    -3.218695628    2.0231403723
C    3.2864687052    -1.8444193544    2.0981765525
C    3.962500543    -0.9584047789    1.2093089875
C    4.9027010673    -1.4686629681    0.2945920006
H    5.8991383737    -3.223048419    -0.486937646
H    4.7227926003    -4.7921623764    1.0655904968
H    3.0462604839    -3.8914484727    2.6957085044
H    5.3868370546    -0.7976017805    -0.4201725269
C    5.6383718212    2.9565464276    -2.3188573432
C    6.423643889    2.3167556039    -1.3475686753
C    5.816306743    1.6770474688    -0.2607544502
C    4.4100499095    1.6539805063    -0.1540023121
C    3.6293023609    2.3260733015    -1.1134392517
C    4.2426361751    2.9699517143    -2.1961513777
H    6.1182889907    3.457900319    -3.1652977884
H    7.5151772994    2.3250855809    -1.4311835379
H    6.4319770205    1.2081705489    0.5141161695
H    2.540540965    2.3612701777    -0.9801882357
H    3.6277742061    3.488587991    -2.9380757197

H P F C 0
def2TZVP
****
Fe 0
SDD
****

Fe 0
SDD

--Link1--
%nprocs=28
%mem=128GB
%chk=W001_1_6_F_1_SPE_NoPd.chk
# PBE1PBE gen pseudo=read int=(grid=ultrafine) empiricaldispersion=GD3BJ pop=nbo guess=read geom=check

W001_1_6_F_1 title 

0 1

H P F C 0
def2TZVP
****
Fe 0
SDD
****

Fe 0
SDD

